Circuit: * D:\Sim\am.asc

Direct Newton iteration for .op point succeeded.

Date: Wed Mar 18 09:14:21 2015
Total elapsed time: 0.374 seconds.

tnom = 27
temp = 27
method = modified trap
totiter = 44934
traniter = 44929
tranpoints = 15770
accept = 9615
rejected = 6155
matrix size = 13
fillins = 0
solver = Normal
Matrix Compiler1: 620 bytes object code size  0.3/0.1/[0.0]
Matrix Compiler2: off  [0.1]/0.2/0.1


