Circuit: * D:\Eletronica\Sim\buffer_3V3_5V.asc

Limiting rise time of source v3 to 5e-007
Limiting fall time of source v3 to 5e-007
WARNING: Less than two connections to node +3.3V.  This node is used by V2.
Direct Newton iteration for .op point succeeded.

Date: Fri Aug 02 10:06:42 2013
Total elapsed time: 0.040 seconds.

tnom = 27
temp = 27
method = modified trap
totiter = 3868
traniter = 3853
tranpoints = 1726
accept = 1490
rejected = 236
matrix size = 17
fillins = 2
solver = Normal
Matrix Compiler1:      69 opcodes  0.3/[0.2]/0.2
Matrix Compiler2: off  [0.1]/0.3/0.3


