Circuit: * C:\Users\cuki\Eletronica\Sim\capacimetro pwm.asc

Limiting rise time of source v2 to 0.0001
Limiting fall time of source v2 to 0.0001
Direct Newton iteration for .op point succeeded.

Date: Mon Dec 03 13:59:19 2012
Total elapsed time: 0.113 seconds.

tnom = 27
temp = 27
method = modified trap
totiter = 7807
traniter = 7799
tranpoints = 3106
accept = 2612
rejected = 494
matrix size = 15
fillins = 0
solver = Normal
Matrix Compiler1: 416 bytes object code size  0.2/0.1/[0.1]
Matrix Compiler2: 783 bytes object code size  0.2/0.3/[0.2]


