Circuit: * C:\Users\cuki\Eletronica\Sim\capacentimetro.asc

WARNING: Node N003 is floating.

Direct Newton iteration for .op point succeeded.

Date: Wed Nov 28 16:59:50 2012
Total elapsed time: 0.308 seconds.

tnom = 27
temp = 27
method = modified trap
totiter = 7165
traniter = 7162
tranpoints = 2517
accept = 2132
rejected = 385
matrix size = 8
fillins = 1
solver = Normal
Matrix Compiler1: 398 bytes object code size  0.2/0.1/[0.1]
Matrix Compiler2: 682 bytes object code size  0.2/0.3/[0.2]


