Circuit: * E:\Eletronica\Sim\darlington.asc

Limiting rise time of source v2 to 0.02
Limiting fall time of source v2 to 0.02
Direct Newton iteration for .op point succeeded.

Date: Sat Mar 23 09:30:21 2013
Total elapsed time: 0.050 seconds.

tnom = 27
temp = 27
method = modified trap
totiter = 3554
traniter = 3546
tranpoints = 1541
accept = 1399
rejected = 142
matrix size = 11
fillins = 2
solver = Normal
Matrix Compiler1: 914 bytes object code size  0.4/0.2/[0.1]
Matrix Compiler2: 949 bytes object code size  0.2/0.2/[0.2]


