Circuit: * D:\Sim\diac_test.asc

Direct Newton iteration failed to find .op point.  (Use ".option noopiter" to skip.)
Starting Gmin stepping
Gmin = 10
Gmin = 1.07374
Gmin = 0.115292
Gmin = 0.0123794
Gmin = 0.00132923
vernier = 0.5
vernier = 0.25
vernier = 0.125
vernier = 0.0625
Gmin = 0.00100083
vernier = 0.03125
vernier = 0.015625
vernier = 0.0078125
vernier = 0.00390625
vernier = 0.00195313
Gmin = 0.00100083
vernier = 0.000976563
vernier = 0.000488281
Gmin = 0
Gmin stepping succeeded in finding the operating point.

Heightened Def Con from 0.0208554 ++++++++++++++++++to 0.0208554
Heightened Def Con from 0.0208554 +++++++++++++++to 0.0208554
Heightened Def Con from 0.0208554 +++++++++++++++to 0.0208554
Heightened Def Con from 0.0208554 +++++++++++++++to 0.0208554
Heightened Def Con from 0.0208554 +++++++++++++++to 0.0208554
Heightened Def Con from 0.0208554 +++++++++++++++to 0.0208554
Heightened Def Con from 0.0208554 +++++++++++++++to 0.0208554
Heightened Def Con from 0.0208554 +++++++++++++++to 0.0208554
Heightened Def Con from 0.0208554 +++++++++++++++to 0.0208554
Heightened Def Con from 0.0208554 +++++++++++++++to 0.0208554
Heightened Def Con from 0.0208554 +++++++++++++++to 0.0208554
Heightened Def Con from 0.0208554 +++++++++++++++to 0.0208554
Heightened Def Con from 0.0208554 +++++++++++++++to 0.0208554
Heightened Def Con from 0.0208554 +++++++++++++++to 0.0208554
Heightened Def Con from 0.0208554 +++++++++++++++to 0.0208554
Heightened Def Con from 0.0208554 +++++++++++++++to 0.0208554
Heightened Def Con from 0.0208554 +++++++++++++++to 0.0208554
Heightened Def Con from 0.0208554 +++++++++++++++to 0.0208554
Heightened Def Con from 0.0208554 +++++++++++++++to 0.0208554
Heightened Def Con from 0.0208554 +++++++++++++++to 0.0208554
Heightened Def Con from 0.0208554 +++++++++++++++to 0.0208554
Heightened Def Con from 0.0208554 +++++++++++++++to 0.0208554
Heightened Def Con from 0.0208554 +++++++++++++++to 0.0208555
Heightened Def Con from 0.0208555 +++++++++++++++to 0.0208555
Heightened Def Con from 0.0208555 +++++++++++++++to 0.0208555
Heightened Def Con from 0.0208555 +++++++++++++++to 0.0208555
Heightened Def Con from 0.0208555 +++++++++++++++to 0.0208555
Heightened Def Con from 0.0208555 +++++++++++++++to 0.0208555
Heightened Def Con from 0.0208555 +++++++++++++++to 0.0208555
Heightened Def Con from 0.0208555 +++++++++++++++to 0.0208555
Heightened Def Con from 0.0208555 +++++++++++++++to 0.0208555
Heightened Def Con from 0.0208555 +++++++++++++++to 0.0208555
Heightened Def Con from 0.0208555 +++++++++++++++to 0.0208555
Heightened Def Con from 0.0208555 +++++++++++++++to 0.0208555
Heightened Def Con from 0.0208555 +++++++++++++++to 0.0208555
Heightened Def Con from 0.0208555 +++++++++++++++to 0.0208555
Heightened Def Con from 0.0208555 +++++++++++++++to 0.0208555
Heightened Def Con from 0.0208555 +++++++++++++++to 0.0208555
Heightened Def Con from 0.0208555 +++++++++++++++to 0.0208555
Heightened Def Con from 0.0208555 +++++++++++++++to 0.0208555
Heightened Def Con from 0.0208555 +++++++++++++++to 0.0208555
Heightened Def Con from 0.0208555 +++++++++++++++to 0.0208555
Heightened Def Con from 0.0208555 +++++++++++++++to 0.0208555
Heightened Def Con from 0.0208555 +++++++++++++++to 0.0208555
Heightened Def Con from 0.0208555 +++++++++++++++to 0.0208555
Heightened Def Con from 0.0208555 +++++++++++++++to 0.0208555
Heightened Def Con from 0.0208555 +++++++++++++++to 0.0208555
Heightened Def Con from 0.0208555 +++++++++++++++to 0.0208555
Heightened Def Con from 0.0208555 +++++++++++++++to 0.0208555
Heightened Def Con from 0.0208555 +++++++++++++++to 0.0208555
Heightened Def Con from 0.0208555 +++++++++++++++to 0.0208555
Heightened Def Con from 0.0208555 +++++++++++++++to 0.0208555
Heightened Def Con from 0.0208555 +++++++++++++++to 0.0208555
Heightened Def Con from 0.0208555 +++++++++++++++to 0.0208555
Heightened Def Con from 0.0208555 +++++++++++++++to 0.0208555
Heightened Def Con from 0.0208555 +++++++++++++++to 0.0208555
Heightened Def Con from 0.0208555 +++++++++++++++to 0.0208555
Heightened Def Con from 0.0208555 +++++++++++++++to 0.0208555
Heightened Def Con from 0.0208555 +++++++++++++++to 0.0208555
Heightened Def Con from 0.0208555 +++++++++++++++to 0.0208555
Heightened Def Con from 0.0208555 +++++++++++++++to 0.0208555
Heightened Def Con from 0.0208555 +++++++++++++++to 0.0208555
Heightened Def Con from 0.0208555 +++++++++++++++to 0.0208555
Heightened Def Con from 0.0208555 +++++++++++++++to 0.0208555
Heightened Def Con from 0.0208555 +++++++++++++++to 0.0208555
Heightened Def Con from 0.0208555 +++++++++++++++to 0.0208555
Heightened Def Con from 0.0208555 +++++++++++++++to 0.0208555
Heightened Def Con from 0.0208555 +++++++++++++++to 0.0208555
Heightened Def Con from 0.0208555 +++++++++++++++to 0.0208555
Heightened Def Con from 0.0208555 +++++++++++++++to 0.0208555
Heightened Def Con from 0.0208555 +++++++++++++++to 0.0208555
Heightened Def Con from 0.0208555 +++++++++++++++to 0.0208555
Heightened Def Con from 0.0208555 +++++++++++++++to 0.0208555
Heightened Def Con from 0.0208555 +++++++++++++++to 0.0208555
Heightened Def Con from 0.0208555 +++++++++++++++to 0.0208555
Heightened Def Con from 0.0208555 +++++++++++++++to 0.0208555
Heightened Def Con from 0.0208555 +++++++++++++++to 0.0208555
Heightened Def Con from 0.0208555 +++++++++++++++to 0.0208555
Heightened Def Con from 0.0208555 +++++++++++++++to 0.0208555
Heightened Def Con from 0.0208555 +++++++++++++++to 0.0208555
Heightened Def Con from 0.0208555 +++++++++++++++to 0.0208555
Heightened Def Con from 0.0208555 +++++++++++++++to 0.0208555
Heightened Def Con from 0.0208555 +++++++++++++++to 0.0208555
Heightened Def Con from 0.0208555 +++++++++++++++to 0.0208555
Heightened Def Con from 0.0208555 +++++++++++++++to 0.0208555
Heightened Def Con from 0.0208555 +++++++++++++++to 0.0208555
Heightened Def Con from 0.0208555 +++++++++++++++to 0.0208555
Heightened Def Con from 0.0208555 +++++++++++++++to 0.0208555
Heightened Def Con from 0.0208555 +++++++++++++++to 0.0208555
Heightened Def Con from 0.0208555 +++++++++++++++to 0.0208555
Heightened Def Con from 0.0208555 +++++++++++++++to 0.0208555
Heightened Def Con from 0.0208555 +++++++++++++++to 0.0208555
Heightened Def Con from 0.0208555 +++++++++++++++to 0.0208555
Heightened Def Con from 0.0208555 +++++++++++++++to 0.0208555
Heightened Def Con from 0.0208555 +++++++++++++++to 0.0208555
Heightened Def Con from 0.0208555 +++++++++++++++to 0.0208555
Heightened Def Con from 0.0208555 +++++++++++++++to 0.0208555
Heightened Def Con from 0.0208555 +++++++++++++++to 0.0208555
Heightened Def Con from 0.0208555 +++++++++++++++to 0.0208555
Heightened Def Con from 0.0208555 +++++++++++++++to 0.0208555
Heightened Def Con from 0.0208555 +++++++++++++++to 0.0208555
Heightened Def Con from 0.0208555 +++++++++++++++to 0.0208555
Heightened Def Con from 0.0208555 +++++++++++++++to 0.0208555
Heightened Def Con from 0.0208555 +++++++++++++++to 0.0208555
Heightened Def Con from 0.0208555 +++++++++++++++to 0.0208555
Heightened Def Con from 0.0208555 +++++++++++++++to 0.0208555
Heightened Def Con from 0.0208555 +++++++++++++++to 0.0208555
Heightened Def Con from 0.0208555 +++++++++++++++to 0.0208555
Heightened Def Con from 0.0208555 +++++++++++++++to 0.0208555
Heightened Def Con from 0.0208555 +++++++++++++++to 0.0208555
Heightened Def Con from 0.0208555 +++++++++++++++to 0.0208555
Heightened Def Con from 0.0208555 +++++++++++++++to 0.0208555
Heightened Def Con from 0.0208555 +++++++++++++++to 0.0208555
Heightened Def Con from 0.0208555 +++++++++++++++to 0.0208555
Heightened Def Con from 0.0208555 +++++++++++++++to 0.0208555
Heightened Def Con from 0.0208555 +++++++++++++++to 0.0208555
Heightened Def Con from 0.0208555 +++++++++++++++to 0.0208555
Heightened Def Con from 0.0208555 +++++++++++++++to 0.0208555
Heightened Def Con from 0.0208555 +++++++++++++++to 0.0208555
Heightened Def Con from 0.0208555 +++++++++++++++to 0.0208555
Heightened Def Con from 0.0208555 +++++++++++++++to 0.0208555
Heightened Def Con from 0.0208555 +++++++++++++++to 0.0208555
Heightened Def Con from 0.0208555 +++++++++++++++to 0.0208556
Heightened Def Con from 0.0208556 +++++++++++++++to 0.0208556
Heightened Def Con from 0.0208556 +++++++++++++++to 0.0208556
Heightened Def Con from 0.0208556 +++++++++++++++to 0.0208556
Heightened Def Con from 0.0208556 +++++++++++++++to 0.0208556
Heightened Def Con from 0.0208556 +++++++++++++++to 0.0208556
Heightened Def Con from 0.0208556 +++++++++++++++to 0.0208556
Heightened Def Con from 0.0208556 +++++++++++++++to 0.0208556
Heightened Def Con from 0.0208556 +++++++++++++++to 0.0208556
Heightened Def Con from 0.0208556 +++++++++++++++to 0.0208556
Heightened Def Con from 0.0208556 +++++++++++++++to 0.0208556
Heightened Def Con from 0.0208556 +++++++++++++++to 0.0208556
Heightened Def Con from 0.0208556 +++++++++++++++to 0.0208556
Heightened Def Con from 0.0208556 +++++++++++++++to 0.0208556
Heightened Def Con from 0.0208556 +++++++++++++++to 0.0208556
Heightened Def Con from 0.0208556 +++++++++++++++to 0.0208556
Heightened Def Con from 0.0208556 +++++++++++++++to 0.0208556
Heightened Def Con from 0.0208556 +++++++++++++++to 0.0208556
Heightened Def Con from 0.0208556 +++++++++++++++to 0.0208556
Heightened Def Con from 0.0208556 +++++++++++++++to 0.0208556
Heightened Def Con from 0.0208556 +++++++++++++++to 0.0208556
Heightened Def Con from 0.0208556 +++++++++++++++to 0.0208556
Heightened Def Con from 0.0208556 +++++++++++++++to 0.0208556
Heightened Def Con from 0.0208556 +++++++++++++++to 0.0208556
Heightened Def Con from 0.0208556 +++++++++++++++to 0.0208556
Heightened Def Con from 0.0208556 +++++++++++++++to 0.0208556
Heightened Def Con from 0.0208556 +++++++++++++++to 0.0208556
Heightened Def Con from 0.0208556 +++++++++++++++to 0.0208556
Heightened Def Con from 0.0208556 +++++++++++++++to 0.0208556
Heightened Def Con from 0.0208556 +++++++++++++++to 0.0208556
Heightened Def Con from 0.0208556 +++++++++++++++to 0.0208556
Heightened Def Con from 0.0208556 +++++++++++++++to 0.0208556
Heightened Def Con from 0.0208556 +++++++++++++++to 0.0208556
Heightened Def Con from 0.0208556 +++++++++++++++to 0.0208556
Heightened Def Con from 0.0208556 +++++++++++++++to 0.0208556
Heightened Def Con from 0.0208556 +++++++++++++++to 0.0208556
Heightened Def Con from 0.0208556 +++++++++++++++to 0.0208556
Heightened Def Con from 0.0208556 +++++++++++++++to 0.0208556
Heightened Def Con from 0.0208556 +++++++++++++++to 0.0208556
Heightened Def Con from 0.0208556 +++++++++++++++to 0.0208556
Heightened Def Con from 0.0208556 +++++++++++++++to 0.0208556
Heightened Def Con from 0.0208556 +++++++++++++++to 0.0208556
Heightened Def Con from 0.0208556 +++++++++++++++to 0.0208556
Heightened Def Con from 0.0208556 +++++++++++++++to 0.0208556
Heightened Def Con from 0.0208556 +++++++++++++++to 0.0208556
Heightened Def Con from 0.0208556 +++++++++++++++to 0.0208556
Heightened Def Con from 0.0208556 +++++++++++++++to 0.0208556
Heightened Def Con from 0.0208556 +++++++++++++++to 0.0208556
Heightened Def Con from 0.0208556 +++++++++++++++to 0.0208556
Heightened Def Con from 0.0208556 +++++++++++++++to 0.0208556
Heightened Def Con from 0.0208556 +++++++++++++++to 0.0208556
Heightened Def Con from 0.0208556 +++++++++++++++to 0.0208556
Heightened Def Con from 0.0208556 +++++++++++++++to 0.0208556
Heightened Def Con from 0.0208556 +++++++++++++++to 0.0208556
Heightened Def Con from 0.0208556 +++++++++++++++to 0.0208556
Heightened Def Con from 0.0208556 +++++++++++++++to 0.0208556
Heightened Def Con from 0.0208556 +++++++++++++++to 0.0208556
Heightened Def Con from 0.0208556 +++++++++++++++to 0.0208556
Heightened Def Con from 0.0208556 +++++++++++++++to 0.0208556
Heightened Def Con from 0.0208556 +++++++++++++++to 0.0208556
Heightened Def Con from 0.0208556 +++++++++++++++to 0.0208556
Heightened Def Con from 0.0208556 +++++++++++++++to 0.0208556
Heightened Def Con from 0.0208556 +++++++++++++++to 0.0208556
Heightened Def Con from 0.0208556 +++++++++++++++to 0.0208556
Heightened Def Con from 0.0208556 +++++++++++++++to 0.0208556
Heightened Def Con from 0.0208556 +++++++++++++++to 0.0208556
Heightened Def Con from 0.0208556 +++++++++++++++to 0.0208556
Heightened Def Con from 0.0208556 +++++++++++++++to 0.0208556
Heightened Def Con from 0.0208556 +++++++++++++++to 0.0208556
Heightened Def Con from 0.0208556 +++++++++++++++to 0.0208556
Heightened Def Con from 0.0208556 +++++++++++++++to 0.0208556
Heightened Def Con from 0.0208556 +++++++++++++++to 0.0208556
Heightened Def Con from 0.0208556 +++++++++++++++to 0.0208556
Heightened Def Con from 0.0208556 +++++++++++++++to 0.0208556
Heightened Def Con from 0.0208556 +++++++++++++++to 0.0208556
Heightened Def Con from 0.0208556 +++++++++++++++to 0.0208556
Heightened Def Con from 0.0208556 +++++++++++++++to 0.0208556
Heightened Def Con from 0.0208556 +++++++++++++++to 0.0208556
Heightened Def Con from 0.0208556 +++++++++++++++to 0.0208556
Heightened Def Con from 0.0208556 +++++++++++++++to 0.0208556
Heightened Def Con from 0.0208556 +++++++++++++++to 0.0208556
Heightened Def Con from 0.0208556 +++++++++++++++to 0.0208556
Heightened Def Con from 0.0208556 +++++++++++++++to 0.0208556
Heightened Def Con from 0.0208556 +++++++++++++++to 0.0208556
Heightened Def Con from 0.0208556 +++++++++++++++to 0.0208556
Heightened Def Con from 0.0208556 +++++++++++++++to 0.0208556
Heightened Def Con from 0.0208556 +++++++++++++++to 0.0208556
Heightened Def Con from 0.0208556 +++++++++++++++to 0.0208556
Heightened Def Con from 0.0208556 +++++++++++++++to 0.0208556
Heightened Def Con from 0.0208556 +++++++++++++++to 0.0208556
Heightened Def Con from 0.0208556 +++++++++++++++to 0.0208556
Heightened Def Con from 0.0208556 +++++++++++++++to 0.0208556
Heightened Def Con from 0.0208556 +++++++++++++++to 0.0208556
Heightened Def Con from 0.0208556 +++++++++++++++to 0.0208556
Heightened Def Con from 0.0208556 +++++++to 0.0208556

Date: Thu Nov 20 10:16:36 2014
Total elapsed time: 4.647 seconds.

tnom = 27
temp = 27
method = modified trap
totiter = 365829
traniter = 364318
tranpoints = 36467
accept = 7422
rejected = 32512
matrix size = 124
fillins = 100
solver = Normal
Thread vector: 19.6/8.9[3] 3.3/1.9[3] 7.6/3.3[3] 0.5/1.3[1]  2592/500
Matrix Compiler1: 9,60 KB object code size  3.4/1.5/[0.8]
Matrix Compiler2: 10,4 KB object code size  1.6/1.7/[0.9]


