Circuit: * D:\Sim\digilogger.asc

WARNING: Less than two connections to node TX_5.  This node is used by V4.
Direct Newton iteration for .op point succeeded.

Date: Wed Oct 21 16:52:53 2015
Total elapsed time: 0.126 seconds.

tnom = 27
temp = 27
method = modified trap
totiter = 8531
traniter = 8517
tranpoints = 2766
accept = 2309
rejected = 457
matrix size = 26
fillins = 25
solver = Normal
Matrix Compiler1: 3.09 KB object code size  1.0/0.4/[0.2]
Matrix Compiler2: off  [0.3]/0.4/0.4


