Circuit: * D:\Sim\disparo_igbt_alto.asc

WARNING: Less than two connections to node N003.  This node is used by R2.
Direct Newton iteration for .op point succeeded.

Date: Wed May 20 09:07:23 2015
Total elapsed time: 0.114 seconds.

tnom = 27
temp = 27
method = modified trap
totiter = 5579
traniter = 5557
tranpoints = 1647
accept = 1510
rejected = 137
matrix size = 16
fillins = 8
solver = Normal
Matrix Compiler1: 1,25 KB object code size  0.6/0.1/[0.1]
Matrix Compiler2:     108 opcodes  0.3/[0.2]/0.5


