Circuit: * D:\Sim\disparo_igbt_alto.asc

WARNING: Node U2:1:6 is floating.

Direct Newton iteration failed to find .op point.  (Use ".option noopiter" to skip.)
Starting Gmin stepping
Gmin = 10
Gmin = 1.07374
Gmin = 0.115292
Gmin = 0.0123794
Gmin = 0.00132923
vernier = 0.5
vernier = 0.25
vernier = 0.125
vernier = 0.0625
Gmin = 0.00100083
vernier = 0.03125
vernier = 0.015625
vernier = 0.0078125
vernier = 0.00390625
vernier = 0.00195313
Gmin = 0.00100083
vernier = 0.000976563
vernier = 0.000488281
Gmin = 0
Gmin stepping succeeded in finding the operating point.

Changing Tseed to 5.85938e-009
Changing Tseed to 5.85938e-011
Changing Tseed to 5.85938e-008
Changing Tseed to 5.85938e-012
Heightened Def Con from 4.9073e-011 to 2.04907e-009
Heightened Def Con from 9.14313e-008 to 9.25563e-008
Heightened Def Con from 9.86094e-008 to 1.00609e-007
Heightened Def Con from 1.01139e-007 to 1.01389e-007
Heightened Def Con from 1.01855e-007 to 1.02105e-007
Heightened Def Con from 1.02116e-007 to 1.03241e-007
Heightened Def Con from 1.05362e-007 to 1.05487e-007
Heightened Def Con from 1.08322e-007 to 1.08463e-007
Heightened Def Con from 1.08694e-007 to 1.09819e-007
Heightened Def Con from 1.10138e-007 to 1.10388e-007
Heightened Def Con from 1.10392e-007 to 1.12392e-007
Heightened Def Con from 1.20086e-007 to 1.22086e-007
Heightened Def Con from 2.14084e-007 to 2.14225e-007
Heightened Def Con from 2.71118e-007 to 2.71259e-007
Heightened Def Con from 2.95811e-007 to 2.96826e-007
Heightened Def Con from 3.00423e-007 to 3.00673e-007
Heightened Def Con from 3.02168e-007 to 3.03183e-007
Heightened Def Con from 3.12154e-007 to 3.12404e-007
Heightened Def Con from 3.32597e-007 to 3.32847e-007
Heightened Def Con from 3.37991e-007 to 3.38131e-007
Heightened Def Con from 3.44691e-007 to 3.44693e-007
Heightened Def Con from 3.53248e-007 to 3.54248e-007
Heightened Def Con from 3.56052e-007 to 3.56302e-007
Heightened Def Con from 3.63269e-007 to 3.63273e-007
Heightened Def Con from 3.65081e-007 to 3.66206e-007
Heightened Def Con from 4.13636e-007 to 4.14652e-007
Heightened Def Con from 4.37753e-007 to 4.38878e-007
Heightened Def Con from 4.41068e-007 to 4.43068e-007
Heightened Def Con from 4.54171e-007 to 4.56171e-007
Heightened Def Con from 7.29901e-007 to 7.31901e-007
Heightened Def Con from 7.33634e-007 to 7.34759e-007
Heightened Def Con from 7.39112e-007 to 7.39253e-007
Heightened Def Con from 7.44693e-007 to 7.45695e-007
Heightened Def Con from 7.47239e-007 to 7.4727e-007
Heightened Def Con from 7.58672e-007 to 7.59688e-007
Heightened Def Con from 7.72766e-007 to 7.73891e-007
Heightened Def Con from 7.80005e-007 to 7.81021e-007
Heightened Def Con from 7.83322e-007 to 7.83572e-007
Heightened Def Con from 7.89671e-007 to 7.89921e-007
Heightened Def Con from 7.96864e-007 to 7.97114e-007
Heightened Def Con from 7.98739e-007 to 8.01739e-007
Heightened Def Con from 8.17145e-007 to 8.1927e-007
Heightened Def Con from 8.27332e-007 to 8.29332e-007
Heightened Def Con from 8.34242e-007 to 8.34492e-007
Heightened Def Con from 8.36387e-007 to 8.36637e-007
Heightened Def Con from 8.37469e-007 to 8.375e-007
Heightened Def Con from 8.45379e-007 to 8.4552e-007
Heightened Def Con from 8.48697e-007 to 8.48838e-007
Heightened Def Con from 8.48959e-007 to 8.49975e-007
Heightened Def Con from 8.56811e-007 to 8.57936e-007
Heightened Def Con from 8.60277e-007 to 8.60527e-007
Heightened Def Con from 8.71687e-007 to 8.71937e-007
Heightened Def Con from 8.74701e-007 to 8.74732e-007
Heightened Def Con from 8.81583e-007 to 8.81708e-007
Heightened Def Con from 8.83089e-007 to 8.83107e-007
Heightened Def Con from 9.52858e-007 to 9.54858e-007
Heightened Def Con from 9.61158e-007 to 9.61408e-007
Heightened Def Con from 9.65605e-007 to 9.67605e-007
Heightened Def Con from 9.73652e-007 to 9.73902e-007
Heightened Def Con from 9.86917e-007 to 9.89042e-007
Heightened Def Con from 9.99166e-007 to 9.99374e-007
Heightened Def Con from 1.00295e-006 to 1.00408e-006
Heightened Def Con from 1.00876e-006 to 1.00901e-006
Heightened Def Con from 1.01367e-006 to 1.01667e-006
Heightened Def Con from 1.02186e-006 to 1.02211e-006
Heightened Def Con from 1.02848e-006 to 1.03148e-006
Heightened Def Con from 1.03745e-006 to 1.0377e-006
Heightened Def Con from 1.04523e-006 to 1.04535e-006
Heightened Def Con from 1.06046e-006 to 1.06071e-006
Heightened Def Con from 1.06098e-006 to 1.06101e-006
Heightened Def Con from 1.06127e-006 to 1.06228e-006
Heightened Def Con from 1.08841e-006 to 1.08854e-006
Heightened Def Con from 1.09041e-006 to 1.09154e-006
Heightened Def Con from 1.09281e-006 to 1.09481e-006
Heightened Def Con from 1.09772e-006 to 1.09797e-006
Heightened Def Con from 1.09858e-006 to 1.09959e-006
Heightened Def Con from 1.10068e-006 to 1.10068e-006
Heightened Def Con from 1.10068e-006 to 1.1018e-006
Heightened Def Con from 1.11769e-006 to 1.11794e-006
Heightened Def Con from 1.1241e-006 to 1.1261e-006
Heightened Def Con from 1.13182e-006 to 1.13382e-006
Heightened Def Con from 1.1661e-006 to 1.16723e-006
Heightened Def Con from 1.16952e-006 to 1.17053e-006
Heightened Def Con from 1.17536e-006 to 1.17539e-006
Heightened Def Con from 1.17748e-006 to 1.1776e-006
Heightened Def Con from 1.17978e-006 to 1.1808e-006
Heightened Def Con from 1.18336e-006 to 1.1834e-006
Heightened Def Con from 1.18414e-006 to 1.18515e-006
Heightened Def Con from 1.18632e-006 to 1.18634e-006
Heightened Def Con from 1.19158e-006 to 1.19171e-006
Heightened Def Con from 1.20495e-006 to 1.20509e-006
Heightened Def Con from 1.20629e-006 to 1.20731e-006
Heightened Def Con from 1.21034e-006 to 1.21047e-006
Heightened Def Con from 1.21247e-006 to 1.21347e-006
Heightened Def Con from 1.2138e-006 to 1.21382e-006
Heightened Def Con from 1.22201e-006 to 1.22204e-006
Heightened Def Con from 1.35586e-006 to 1.35786e-006
Heightened Def Con from 1.35932e-006 to 1.36045e-006
Heightened Def Con from 1.36048e-006 to 1.3606e-006
Heightened Def Con from 1.3618e-006 to 1.36281e-006
Heightened Def Con from 1.36296e-006 to 1.36496e-006
Heightened Def Con from 1.36909e-006 to 1.37021e-006
Heightened Def Con from 1.37551e-006 to 1.37553e-006
Heightened Def Con from 1.38076e-006 to 1.38101e-006
Heightened Def Con from 1.38128e-006 to 1.38328e-006
Heightened Def Con from 1.47375e-006 to 1.47487e-006
Heightened Def Con from 1.47525e-006 to 1.47638e-006
Heightened Def Con from 1.47826e-006 to 1.4784e-006
Heightened Def Con from 1.48248e-006 to 1.48273e-006
Heightened Def Con from 1.48546e-006 to 1.4856e-006
Heightened Def Con from 1.48816e-006 to 1.48841e-006
Heightened Def Con from 1.49084e-006 to 1.49109e-006
Heightened Def Con from 1.49578e-006 to 1.49579e-006
Heightened Def Con from 1.49634e-006 to 1.49746e-006
Heightened Def Con from 1.51059e-006 to 1.51071e-006
Heightened Def Con from 1.5124e-006 to 1.5144e-006
Heightened Def Con from 1.51937e-006 to 1.52137e-006
Heightened Def Con from 1.52374e-006 to 1.52574e-006
Heightened Def Con from 1.5643e-006 to 1.56443e-006
Heightened Def Con from 1.56553e-006 to 1.56665e-006
Heightened Def Con from 1.56898e-006 to 1.56923e-006
Heightened Def Con from 1.57287e-006 to 1.5729e-006
Heightened Def Con from 1.57776e-006 to 1.57789e-006
Heightened Def Con from 1.57881e-006 to 1.57983e-006
Heightened Def Con from 1.58234e-006 to 1.58259e-006
Heightened Def Con from 1.59125e-006 to 1.59125e-006
Heightened Def Con from 1.5923e-006 to 1.59244e-006
Heightened Def Con from 1.59299e-006 to 1.59411e-006
Heightened Def Con from 1.59569e-006 to 1.59769e-006
Heightened Def Con from 1.59802e-006 to 1.59914e-006
Heightened Def Con from 1.6104e-006 to 1.61041e-006
Heightened Def Con from 1.61179e-006 to 1.61204e-006
Heightened Def Con from 1.61474e-006 to 1.61477e-006
Heightened Def Con from 1.61483e-006 to 1.61497e-006
Heightened Def Con from 1.61529e-006 to 1.61542e-006
Heightened Def Con from 1.61651e-006 to 1.61676e-006
Heightened Def Con from 1.61716e-006 to 1.61916e-006
Heightened Def Con from 1.63073e-006 to 1.63085e-006
Heightened Def Con from 1.63234e-006 to 1.63334e-006
Heightened Def Con from 1.63674e-006 to 1.63699e-006
Heightened Def Con from 1.63703e-006 to 1.63728e-006
Heightened Def Con from 1.63983e-006 to 1.63997e-006
Heightened Def Con from 1.64296e-006 to 1.64396e-006
Heightened Def Con from 1.65067e-006 to 1.6518e-006
Heightened Def Con from 1.65275e-006 to 1.653e-006
Heightened Def Con from 1.66386e-006 to 1.66586e-006
Heightened Def Con from 1.67412e-006 to 1.67437e-006
Heightened Def Con from 1.67571e-006 to 1.67583e-006
Heightened Def Con from 1.67836e-006 to 1.68036e-006
Heightened Def Con from 1.68123e-006 to 1.68323e-006
Heightened Def Con from 1.68364e-006 to 1.68464e-006
Heightened Def Con from 1.70036e-006 to 1.70137e-006
Heightened Def Con from 1.71062e-006 to 1.71174e-006
Heightened Def Con from 1.715e-006 to 1.71502e-006
Heightened Def Con from 1.71502e-006 to 1.71702e-006
Heightened Def Con from 1.72527e-006 to 1.72727e-006
Heightened Def Con from 1.72909e-006 to 1.73021e-006
Heightened Def Con from 1.73311e-006 to 1.73336e-006
Heightened Def Con from 1.73482e-006 to 1.73494e-006
Heightened Def Con from 1.73584e-006 to 1.73784e-006
Heightened Def Con from 1.7433e-006 to 1.7453e-006
Heightened Def Con from 1.75842e-006 to 1.76042e-006
Heightened Def Con from 1.77693e-006 to 1.77696e-006
Heightened Def Con from 1.78338e-006 to 1.7844e-006
Heightened Def Con from 1.79043e-006 to 1.79056e-006
Heightened Def Con from 1.79256e-006 to 1.79456e-006
Heightened Def Con from 1.80404e-006 to 1.80404e-006
Heightened Def Con from 1.80948e-006 to 1.8106e-006
Heightened Def Con from 1.81315e-006 to 1.81515e-006
Heightened Def Con from 1.8171e-006 to 1.8191e-006
Heightened Def Con from 1.81965e-006 to 1.8199e-006
Heightened Def Con from 1.8238e-006 to 1.82383e-006
Heightened Def Con from 1.82733e-006 to 1.82933e-006
Heightened Def Con from 1.82959e-006 to 1.82959e-006
Heightened Def Con from 1.84937e-006 to 1.8505e-006
Heightened Def Con from 1.85643e-006 to 1.85745e-006
Heightened Def Con from 1.8578e-006 to 1.85805e-006
Heightened Def Con from 1.85858e-006 to 1.85873e-006
Heightened Def Con from 1.86537e-006 to 1.86541e-006
Heightened Def Con from 1.86569e-006 to 1.86769e-006
Heightened Def Con from 1.87035e-006 to 1.8706e-006
Heightened Def Con from 1.89267e-006 to 1.89268e-006
Heightened Def Con from 1.89863e-006 to 1.89888e-006
Heightened Def Con from 1.90064e-006 to 1.90264e-006
Heightened Def Con from 1.93687e-006 to 1.938e-006
Heightened Def Con from 1.94166e-006 to 1.94278e-006
Heightened Def Con from 1.94332e-006 to 1.94346e-006
Heightened Def Con from 1.94589e-006 to 1.94702e-006
Heightened Def Con from 1.94998e-006 to 1.95198e-006
Heightened Def Con from 2.27799e-006 to 2.27813e-006
Heightened Def Con from 2.28208e-006 to 2.28233e-006
Heightened Def Con from 2.28337e-006 to 2.2834e-006
Heightened Def Con from 2.2873e-006 to 2.28755e-006
Heightened Def Con from 2.28886e-006 to 2.28998e-006
Heightened Def Con from 2.29502e-006 to 2.29502e-006
Heightened Def Con from 2.29792e-006 to 2.29792e-006
Heightened Def Con from 2.29792e-006 to 2.29817e-006
Heightened Def Con from 2.29827e-006 to 2.30027e-006
Heightened Def Con from 2.30446e-006 to 2.30447e-006
Heightened Def Con from 2.30456e-006 to 2.30568e-006
Heightened Def Con from 2.3085e-006 to 2.30864e-006
Heightened Def Con from 2.3108e-006 to 2.31192e-006
Heightened Def Con from 2.31225e-006 to 2.31425e-006
Heightened Def Con from 2.31718e-006 to 2.31732e-006
Heightened Def Con from 2.31819e-006 to 2.31831e-006
Heightened Def Con from 2.31911e-006 to 2.32111e-006
Heightened Def Con from 2.38929e-006 to 2.39129e-006
Heightened Def Con from 2.40931e-006 to 2.41131e-006
Heightened Def Con from 2.42301e-006 to 2.42501e-006
Heightened Def Con from 2.43691e-006 to 2.43791e-006
Heightened Def Con from 2.44162e-006 to 2.44274e-006
Heightened Def Con from 2.44452e-006 to 2.44466e-006
Heightened Def Con from 2.44477e-006 to 2.44502e-006
Heightened Def Con from 2.44865e-006 to 2.4489e-006
Heightened Def Con from 2.48956e-006 to 2.49068e-006
Heightened Def Con from 2.51323e-006 to 2.51523e-006
Heightened Def Con from 2.52044e-006 to 2.52244e-006
Heightened Def Con from 2.52355e-006 to 2.52368e-006
Heightened Def Con from 2.52375e-006 to 2.52477e-006
Heightened Def Con from 2.53648e-006 to 2.53761e-006
Heightened Def Con from 2.53825e-006 to 2.53838e-006
Heightened Def Con from 2.53841e-006 to 2.53844e-006
Heightened Def Con from 2.542e-006 to 2.54225e-006
Heightened Def Con from 2.54372e-006 to 2.54374e-006
Heightened Def Con from 2.54502e-006 to 2.54516e-006
Heightened Def Con from 2.54598e-006 to 2.54798e-006
Heightened Def Con from 2.55205e-006 to 2.55405e-006
Heightened Def Con from 2.55479e-006 to 2.55581e-006
Heightened Def Con from 2.55584e-006 to 2.55784e-006
Heightened Def Con from 2.66007e-006 to 2.66009e-006
Heightened Def Con from 2.6607e-006 to 2.66073e-006
Heightened Def Con from 2.66191e-006 to 2.66216e-006
Heightened Def Con from 2.674e-006 to 2.67413e-006
Heightened Def Con from 2.6762e-006 to 2.6782e-006
Heightened Def Con from 2.68127e-006 to 2.68327e-006
Heightened Def Con from 2.71911e-006 to 2.72111e-006
Heightened Def Con from 2.72542e-006 to 2.72556e-006
Heightened Def Con from 2.72633e-006 to 2.72746e-006
Heightened Def Con from 2.72818e-006 to 2.72821e-006
Heightened Def Con from 2.72837e-006 to 2.72862e-006
Heightened Def Con from 2.73147e-006 to 2.7326e-006
Heightened Def Con from 2.73314e-006 to 2.73426e-006
Heightened Def Con from 2.73429e-006 to 2.73629e-006
Heightened Def Con from 2.74629e-006 to 2.74741e-006
Heightened Def Con from 2.75212e-006 to 2.75224e-006
Heightened Def Con from 2.76604e-006 to 2.76804e-006
Heightened Def Con from 2.76874e-006 to 2.76886e-006
Heightened Def Con from 2.81349e-006 to 2.81462e-006
Heightened Def Con from 2.82321e-006 to 2.82434e-006
Heightened Def Con from 2.82439e-006 to 2.82552e-006
Heightened Def Con from 2.8261e-006 to 2.8281e-006
Heightened Def Con from 2.83307e-006 to 2.83507e-006
Heightened Def Con from 2.83519e-006 to 2.83521e-006
Heightened Def Con from 2.83574e-006 to 2.83577e-006
Heightened Def Con from 2.83588e-006 to 2.83589e-006
Heightened Def Con from 2.88858e-006 to 2.89058e-006
Heightened Def Con from 2.89103e-006 to 2.89215e-006
Heightened Def Con from 2.89411e-006 to 2.89611e-006
Heightened Def Con from 2.89831e-006 to 2.90031e-006
Heightened Def Con from 2.90155e-006 to 2.90169e-006
Heightened Def Con from 2.90292e-006 to 2.90492e-006
Heightened Def Con from 2.90643e-006 to 2.90646e-006
Heightened Def Con from 2.91109e-006 to 2.91111e-006
Heightened Def Con from 2.91183e-006 to 2.91285e-006
Heightened Def Con from 2.91286e-006 to 2.91289e-006
Heightened Def Con from 2.92075e-006 to 2.92187e-006
Heightened Def Con from 2.92231e-006 to 2.92344e-006
Heightened Def Con from 2.92926e-006 to 2.93038e-006
Heightened Def Con from 2.94743e-006 to 2.94744e-006
Heightened Def Con from 2.94938e-006 to 2.94963e-006
Heightened Def Con from 2.94966e-006 to 2.94979e-006
Heightened Def Con from 2.95283e-006 to 2.95308e-006
Heightened Def Con from 2.95335e-006 to 2.9536e-006
Heightened Def Con from 2.95903e-006 to 2.96103e-006
Heightened Def Con from 2.96337e-006 to 2.96351e-006
Heightened Def Con from 2.97557e-006 to 2.97757e-006
Heightened Def Con from 2.97988e-006 to 2.981e-006
Heightened Def Con from 2.98432e-006 to 2.98533e-006
Heightened Def Con from 2.99104e-006 to 2.99216e-006
Heightened Def Con from 2.99217e-006 to 2.99219e-006
Heightened Def Con from 2.99335e-006 to 2.9936e-006
Heightened Def Con from 3.00319e-006 to 3.00319e-006
Heightened Def Con from 3.00331e-006 to 3.00345e-006
Heightened Def Con from 3.00435e-006 to 3.00436e-006
Heightened Def Con from 3.00739e-006 to 3.00742e-006
Heightened Def Con from 3.0093e-006 to 3.00944e-006
Heightened Def Con from 3.01115e-006 to 3.01315e-006
Heightened Def Con from 3.01522e-006 to 3.01635e-006
Heightened Def Con from 3.02319e-006 to 3.02432e-006
Heightened Def Con from 3.0501e-006 to 3.0521e-006
Heightened Def Con from 3.0595e-006 to 3.06052e-006
Heightened Def Con from 3.06066e-006 to 3.06079e-006
Heightened Def Con from 3.08284e-006 to 3.08287e-006
Heightened Def Con from 3.08535e-006 to 3.0856e-006
Heightened Def Con from 3.08633e-006 to 3.08647e-006
Heightened Def Con from 3.08697e-006 to 3.08897e-006
Heightened Def Con from 3.12686e-006 to 3.12799e-006
Heightened Def Con from 3.12847e-006 to 3.13047e-006
Heightened Def Con from 3.13316e-006 to 3.13516e-006
Heightened Def Con from 3.14116e-006 to 3.1413e-006
Heightened Def Con from 3.14238e-006 to 3.14252e-006
Heightened Def Con from 3.14268e-006 to 3.1438e-006
Heightened Def Con from 3.14409e-006 to 3.14522e-006
Heightened Def Con from 3.16953e-006 to 3.17153e-006
Heightened Def Con from 3.18278e-006 to 3.18478e-006
Heightened Def Con from 3.19317e-006 to 3.1933e-006
Heightened Def Con from 3.19341e-006 to 3.19355e-006
Heightened Def Con from 3.19409e-006 to 3.19511e-006
Heightened Def Con from 3.19656e-006 to 3.19658e-006
Heightened Def Con from 3.2005e-006 to 3.2005e-006
Heightened Def Con from 3.2064e-006 to 3.20741e-006
Heightened Def Con from 3.2183e-006 to 3.21855e-006
Heightened Def Con from 3.2202e-006 to 3.22122e-006
Heightened Def Con from 3.22466e-006 to 3.22468e-006
Heightened Def Con from 3.22538e-006 to 3.22541e-006
Heightened Def Con from 3.22557e-006 to 3.22669e-006
Heightened Def Con from 3.26369e-006 to 3.2647e-006
Heightened Def Con from 3.27e-006 to 3.272e-006
Heightened Def Con from 3.28641e-006 to 3.28655e-006
Heightened Def Con from 3.28776e-006 to 3.28976e-006
Heightened Def Con from 3.3525e-006 to 3.35252e-006
Heightened Def Con from 3.35406e-006 to 3.35606e-006
Heightened Def Con from 3.35659e-006 to 3.35759e-006
Heightened Def Con from 3.35926e-006 to 3.36039e-006
Heightened Def Con from 3.36099e-006 to 3.36124e-006
Heightened Def Con from 3.38788e-006 to 3.38988e-006
Heightened Def Con from 3.40588e-006 to 3.40701e-006
Heightened Def Con from 3.41652e-006 to 3.41765e-006
Heightened Def Con from 3.42526e-006 to 3.42538e-006
Heightened Def Con from 3.42813e-006 to 3.42838e-006
Heightened Def Con from 3.42997e-006 to 3.4311e-006
Heightened Def Con from 3.43152e-006 to 3.43352e-006
Heightened Def Con from 3.43467e-006 to 3.43481e-006
Heightened Def Con from 3.43611e-006 to 3.43811e-006
Heightened Def Con from 3.43896e-006 to 3.43998e-006
Heightened Def Con from 3.44112e-006 to 3.44114e-006
Heightened Def Con from 3.45725e-006 to 3.4575e-006
Heightened Def Con from 3.45811e-006 to 3.45912e-006
Heightened Def Con from 3.46826e-006 to 3.46829e-006
Heightened Def Con from 3.46854e-006 to 3.47054e-006
Heightened Def Con from 3.47732e-006 to 3.47844e-006
Heightened Def Con from 3.4796e-006 to 3.4806e-006
Heightened Def Con from 3.4832e-006 to 3.4852e-006
Heightened Def Con from 3.49032e-006 to 3.49144e-006
Heightened Def Con from 3.49658e-006 to 3.4967e-006
Heightened Def Con from 3.49672e-006 to 3.49684e-006
Heightened Def Con from 3.505e-006 to 3.50525e-006
Heightened Def Con from 3.50858e-006 to 3.51058e-006
Heightened Def Con from 3.52102e-006 to 3.52302e-006
Heightened Def Con from 3.53098e-006 to 3.53123e-006
Heightened Def Con from 3.5359e-006 to 3.53592e-006
Heightened Def Con from 3.53799e-006 to 3.53812e-006
Heightened Def Con from 3.53812e-006 to 3.53925e-006
Heightened Def Con from 3.54012e-006 to 3.54037e-006
Heightened Def Con from 3.54444e-006 to 3.54644e-006
Heightened Def Con from 3.55904e-006 to 3.56006e-006
Heightened Def Con from 3.56598e-006 to 3.5661e-006
Heightened Def Con from 3.56681e-006 to 3.56783e-006
Heightened Def Con from 3.5716e-006 to 3.5736e-006
Heightened Def Con from 3.57793e-006 to 3.57795e-006
Heightened Def Con from 3.57967e-006 to 3.58167e-006
Heightened Def Con from 3.58167e-006 to 3.58169e-006
Heightened Def Con from 3.58485e-006 to 3.58685e-006
Heightened Def Con from 3.6202e-006 to 3.62032e-006
Heightened Def Con from 3.62067e-006 to 3.62267e-006
Heightened Def Con from 3.62415e-006 to 3.62427e-006
Heightened Def Con from 3.63283e-006 to 3.63308e-006
Heightened Def Con from 3.67121e-006 to 3.67221e-006
Heightened Def Con from 3.67501e-006 to 3.67514e-006
Heightened Def Con from 3.67523e-006 to 3.67548e-006
Heightened Def Con from 3.67751e-006 to 3.67776e-006
Heightened Def Con from 3.67832e-006 to 3.67857e-006
Heightened Def Con from 3.67867e-006 to 3.68067e-006
Heightened Def Con from 3.68883e-006 to 3.68984e-006
Heightened Def Con from 3.68997e-006 to 3.68999e-006
Heightened Def Con from 3.69088e-006 to 3.6919e-006
Heightened Def Con from 3.69195e-006 to 3.69308e-006
Heightened Def Con from 3.69324e-006 to 3.69524e-006
Heightened Def Con from 3.70205e-006 to 3.7023e-006
Heightened Def Con from 3.72029e-006 to 3.72142e-006
Heightened Def Con from 3.73673e-006 to 3.73786e-006
Heightened Def Con from 3.7387e-006 to 3.73972e-006
Heightened Def Con from 3.73976e-006 to 3.74001e-006
Heightened Def Con from 3.74017e-006 to 3.7413e-006
Heightened Def Con from 3.74409e-006 to 3.74609e-006
Heightened Def Con from 3.76301e-006 to 3.76501e-006
Heightened Def Con from 3.77294e-006 to 3.77494e-006
Heightened Def Con from 3.78608e-006 to 3.78721e-006
Heightened Def Con from 3.78825e-006 to 3.7885e-006
Heightened Def Con from 3.78913e-006 to 3.78925e-006
Heightened Def Con from 3.85826e-006 to 3.85851e-006
Heightened Def Con from 3.86369e-006 to 3.86569e-006
Heightened Def Con from 3.87032e-006 to 3.87057e-006
Heightened Def Con from 3.87113e-006 to 3.87138e-006
Heightened Def Con from 3.87163e-006 to 3.87264e-006
Heightened Def Con from 3.87425e-006 to 3.8745e-006
Heightened Def Con from 3.88036e-006 to 3.88236e-006
Heightened Def Con from 3.891e-006 to 3.893e-006
Heightened Def Con from 3.89905e-006 to 3.90105e-006
Heightened Def Con from 3.91061e-006 to 3.91086e-006
Heightened Def Con from 3.91258e-006 to 3.91283e-006
Heightened Def Con from 3.9165e-006 to 3.91675e-006
Heightened Def Con from 3.91697e-006 to 3.91711e-006
Heightened Def Con from 3.91781e-006 to 3.91981e-006
Heightened Def Con from 3.92687e-006 to 3.92788e-006
Heightened Def Con from 3.92792e-006 to 3.92806e-006
Heightened Def Con from 3.92826e-006 to 3.92926e-006
Heightened Def Con from 3.92947e-006 to 3.9295e-006
Heightened Def Con from 3.9295e-006 to 3.9315e-006
Heightened Def Con from 3.94609e-006 to 3.9471e-006
Heightened Def Con from 3.95279e-006 to 3.95283e-006
Heightened Def Con from 3.95319e-006 to 3.95333e-006
Heightened Def Con from 3.95773e-006 to 3.95785e-006
Heightened Def Con from 3.9581e-006 to 3.95812e-006
Heightened Def Con from 3.95835e-006 to 3.96035e-006
Heightened Def Con from 3.9747e-006 to 3.97495e-006
Heightened Def Con from 3.97505e-006 to 3.97517e-006
Heightened Def Con from 3.97521e-006 to 3.97633e-006
Heightened Def Con from 3.9785e-006 to 3.9805e-006
Heightened Def Con from 3.98102e-006 to 3.98202e-006
Heightened Def Con from 4.00411e-006 to 4.00436e-006
Heightened Def Con from 4.00505e-006 to 4.00618e-006
Heightened Def Con from 4.01377e-006 to 4.01389e-006
Heightened Def Con from 4.01438e-006 to 4.01438e-006
Heightened Def Con from 4.01438e-006 to 4.01638e-006
Heightened Def Con from 4.01848e-006 to 4.0196e-006
Heightened Def Con from 4.02423e-006 to 4.02623e-006
Heightened Def Con from 4.03261e-006 to 4.03276e-006
Heightened Def Con from 4.03515e-006 to 4.0354e-006
Heightened Def Con from 4.03921e-006 to 4.04121e-006
Heightened Def Con from 4.04154e-006 to 4.04254e-006
Heightened Def Con from 4.04468e-006 to 4.04668e-006
Heightened Def Con from 4.04668e-006 to 4.04868e-006
Heightened Def Con from 4.07928e-006 to 4.0793e-006
Heightened Def Con from 4.07976e-006 to 4.0799e-006
Heightened Def Con from 4.07994e-006 to 4.08194e-006
Heightened Def Con from 4.08369e-006 to 4.08569e-006
Heightened Def Con from 4.08845e-006 to 4.08957e-006
Heightened Def Con from 4.09023e-006 to 4.09123e-006
Heightened Def Con from 4.11135e-006 to 4.11235e-006
Heightened Def Con from 4.12043e-006 to 4.12045e-006
Heightened Def Con from 4.12046e-006 to 4.12246e-006
Heightened Def Con from 4.15475e-006 to 4.15475e-006
Heightened Def Con from 4.15475e-006 to 4.15489e-006
Heightened Def Con from 4.15581e-006 to 4.15682e-006
Heightened Def Con from 4.1573e-006 to 4.15743e-006
Heightened Def Con from 4.16014e-006 to 4.16018e-006
Heightened Def Con from 4.16027e-006 to 4.16227e-006
Heightened Def Con from 4.16503e-006 to 4.16506e-006
Heightened Def Con from 4.1651e-006 to 4.16512e-006
Heightened Def Con from 4.21064e-006 to 4.21176e-006
Heightened Def Con from 4.21187e-006 to 4.21387e-006
Heightened Def Con from 4.22053e-006 to 4.22065e-006
Heightened Def Con from 4.23609e-006 to 4.23721e-006
Heightened Def Con from 4.23755e-006 to 4.23955e-006
Heightened Def Con from 4.25035e-006 to 4.25147e-006
Heightened Def Con from 4.2551e-006 to 4.25535e-006
Heightened Def Con from 4.25706e-006 to 4.25808e-006
Heightened Def Con from 4.2591e-006 to 4.2611e-006
Heightened Def Con from 4.26122e-006 to 4.26223e-006
Heightened Def Con from 4.26267e-006 to 4.2638e-006
Heightened Def Con from 4.27027e-006 to 4.2703e-006
Heightened Def Con from 4.27177e-006 to 4.27189e-006
Heightened Def Con from 4.27217e-006 to 4.27417e-006
Heightened Def Con from 4.39275e-006 to 4.39288e-006
Heightened Def Con from 4.41163e-006 to 4.41188e-006
Heightened Def Con from 4.41329e-006 to 4.41354e-006
Heightened Def Con from 4.42438e-006 to 4.42638e-006
Heightened Def Con from 4.44886e-006 to 4.44999e-006
Heightened Def Con from 4.45117e-006 to 4.45121e-006
Heightened Def Con from 4.4513e-006 to 4.4523e-006
Heightened Def Con from 4.45341e-006 to 4.45356e-006
Heightened Def Con from 4.45409e-006 to 4.45609e-006
Heightened Def Con from 4.45707e-006 to 4.45907e-006
Heightened Def Con from 4.47711e-006 to 4.47911e-006
Heightened Def Con from 4.5029e-006 to 4.5049e-006
Heightened Def Con from 4.50516e-006 to 4.50517e-006
Heightened Def Con from 4.50758e-006 to 4.50958e-006
Heightened Def Con from 4.51168e-006 to 4.51168e-006
Heightened Def Con from 4.51169e-006 to 4.51369e-006
Heightened Def Con from 4.522e-006 to 4.52201e-006
Heightened Def Con from 4.52231e-006 to 4.52331e-006
Heightened Def Con from 4.52442e-006 to 4.52442e-006
Heightened Def Con from 4.53156e-006 to 4.53356e-006
Heightened Def Con from 4.53434e-006 to 4.53435e-006
Heightened Def Con from 4.54085e-006 to 4.54088e-006
Heightened Def Con from 4.54103e-006 to 4.54216e-006
Heightened Def Con from 4.54232e-006 to 4.54432e-006
Heightened Def Con from 4.57695e-006 to 4.57709e-006
Heightened Def Con from 4.57752e-006 to 4.57865e-006
Heightened Def Con from 4.58056e-006 to 4.58058e-006
Heightened Def Con from 4.58287e-006 to 4.58399e-006
Heightened Def Con from 4.58437e-006 to 4.58462e-006
Heightened Def Con from 4.59529e-006 to 4.59642e-006
Heightened Def Con from 4.59777e-006 to 4.59791e-006
Heightened Def Con from 4.59791e-006 to 4.59904e-006
Heightened Def Con from 4.60008e-006 to 4.60208e-006
Heightened Def Con from 4.68883e-006 to 4.68886e-006
Heightened Def Con from 4.68886e-006 to 4.68986e-006
Heightened Def Con from 4.69014e-006 to 4.69016e-006
Heightened Def Con from 4.69108e-006 to 4.69109e-006
Heightened Def Con from 4.69185e-006 to 4.6921e-006
Heightened Def Con from 4.69545e-006 to 4.69745e-006
Heightened Def Con from 4.69876e-006 to 4.70076e-006
Heightened Def Con from 4.70502e-006 to 4.70505e-006
Heightened Def Con from 4.70529e-006 to 4.70642e-006
Heightened Def Con from 4.70743e-006 to 4.70856e-006
Heightened Def Con from 4.73345e-006 to 4.73545e-006
Heightened Def Con from 4.73618e-006 to 4.73818e-006
Heightened Def Con from 4.73988e-006 to 4.74e-006
Heightened Def Con from 4.74924e-006 to 4.74924e-006
Heightened Def Con from 4.75008e-006 to 4.75208e-006
Heightened Def Con from 4.75437e-006 to 4.75637e-006
Heightened Def Con from 4.75696e-006 to 4.75698e-006
Heightened Def Con from 4.75731e-006 to 4.75732e-006
Heightened Def Con from 4.75738e-006 to 4.75938e-006
Heightened Def Con from 4.75938e-006 to 4.7605e-006
Heightened Def Con from 4.76246e-006 to 4.76358e-006
Heightened Def Con from 4.76618e-006 to 4.76718e-006
Heightened Def Con from 4.7801e-006 to 4.78022e-006
Heightened Def Con from 4.78089e-006 to 4.78189e-006
Heightened Def Con from 4.78189e-006 to 4.78291e-006
Heightened Def Con from 4.78816e-006 to 4.78819e-006
Heightened Def Con from 4.79096e-006 to 4.79098e-006
Heightened Def Con from 4.79283e-006 to 4.79483e-006
Heightened Def Con from 4.80513e-006 to 4.80614e-006
Heightened Def Con from 4.81406e-006 to 4.81507e-006
Heightened Def Con from 4.8152e-006 to 4.8172e-006
Heightened Def Con from 4.81724e-006 to 4.81724e-006
Heightened Def Con from 4.82593e-006 to 4.82694e-006
Heightened Def Con from 4.83594e-006 to 4.83794e-006
Heightened Def Con from 4.83797e-006 to 4.83997e-006
Heightened Def Con from 4.84653e-006 to 4.84853e-006
Heightened Def Con from 4.86436e-006 to 4.86636e-006
Heightened Def Con from 4.90085e-006 to 4.90088e-006
Heightened Def Con from 4.90219e-006 to 4.90419e-006
Heightened Def Con from 4.9263e-006 to 4.92633e-006
Heightened Def Con from 4.92709e-006 to 4.92822e-006
Heightened Def Con from 4.9295e-006 to 4.92975e-006
Heightened Def Con from 4.93003e-006 to 4.93017e-006
Heightened Def Con from 4.93018e-006 to 4.9312e-006
Heightened Def Con from 4.93643e-006 to 4.93668e-006
Heightened Def Con from 4.93685e-006 to 4.93698e-006
Heightened Def Con from 4.93721e-006 to 4.93833e-006
Heightened Def Con from 4.94248e-006 to 4.94273e-006
Heightened Def Con from 4.94519e-006 to 4.94523e-006
Heightened Def Con from 4.95201e-006 to 4.95226e-006
Heightened Def Con from 4.95248e-006 to 4.95273e-006
Heightened Def Con from 4.95606e-006 to 4.95806e-006
Heightened Def Con from 4.95883e-006 to 4.96083e-006
Heightened Def Con from 4.96083e-006 to 4.96196e-006
Heightened Def Con from 4.96464e-006 to 4.96577e-006
Heightened Def Con from 4.96578e-006 to 4.96581e-006
Heightened Def Con from 4.96793e-006 to 4.96993e-006
Heightened Def Con from 4.97101e-006 to 4.97104e-006
Heightened Def Con from 4.97859e-006 to 4.98059e-006
Heightened Def Con from 4.98325e-006 to 4.9835e-006
Heightened Def Con from 4.9835e-006 to 4.98352e-006
Heightened Def Con from 4.98353e-006 to 4.98553e-006
Heightened Def Con from 5.02362e-006 to 5.02474e-006
Heightened Def Con from 5.02499e-006 to 5.02524e-006
Heightened Def Con from 5.0276e-006 to 5.02872e-006
Heightened Def Con from 5.03034e-006 to 5.03234e-006
Heightened Def Con from 5.04087e-006 to 5.04101e-006
Heightened Def Con from 5.04419e-006 to 5.04531e-006
Heightened Def Con from 5.04581e-006 to 5.04606e-006
Heightened Def Con from 5.04711e-006 to 5.04911e-006
Heightened Def Con from 5.04994e-006 to 5.05095e-006
Heightened Def Con from 5.05178e-006 to 5.0529e-006
Heightened Def Con from 5.06067e-006 to 5.0607e-006
Heightened Def Con from 5.06165e-006 to 5.06178e-006
Heightened Def Con from 5.0656e-006 to 5.06672e-006
Heightened Def Con from 5.07031e-006 to 5.07231e-006
Heightened Def Con from 5.09879e-006 to 5.10079e-006
Heightened Def Con from 5.10696e-006 to 5.10896e-006
Heightened Def Con from 5.10896e-006 to 5.10921e-006
Heightened Def Con from 5.11603e-006 to 5.11803e-006
Heightened Def Con from 5.14849e-006 to 5.14852e-006
Heightened Def Con from 5.14852e-006 to 5.14877e-006
Heightened Def Con from 5.15156e-006 to 5.15169e-006
Heightened Def Con from 5.15265e-006 to 5.15367e-006
Heightened Def Con from 5.16495e-006 to 5.16607e-006
Heightened Def Con from 5.16617e-006 to 5.16729e-006
Heightened Def Con from 5.16976e-006 to 5.1699e-006
Heightened Def Con from 5.17051e-006 to 5.17063e-006
Heightened Def Con from 5.17138e-006 to 5.17141e-006
Heightened Def Con from 5.17236e-006 to 5.17436e-006
Heightened Def Con from 5.17478e-006 to 5.17579e-006
Heightened Def Con from 5.17999e-006 to 5.181e-006
Heightened Def Con from 5.31457e-006 to 5.31657e-006
Heightened Def Con from 5.32135e-006 to 5.32147e-006
Heightened Def Con from 5.3254e-006 to 5.32542e-006
Heightened Def Con from 5.32866e-006 to 5.32867e-006
Heightened Def Con from 5.33101e-006 to 5.33126e-006
Heightened Def Con from 5.3324e-006 to 5.33352e-006
Heightened Def Con from 5.33378e-006 to 5.3338e-006
Heightened Def Con from 5.33624e-006 to 5.33824e-006
Heightened Def Con from 5.34166e-006 to 5.34169e-006
Heightened Def Con from 5.34408e-006 to 5.34409e-006
Heightened Def Con from 5.34409e-006 to 5.34521e-006
Heightened Def Con from 5.34571e-006 to 5.34574e-006
Heightened Def Con from 5.34575e-006 to 5.34576e-006
Heightened Def Con from 5.3484e-006 to 5.34853e-006
Heightened Def Con from 5.34854e-006 to 5.34867e-006
Heightened Def Con from 5.35351e-006 to 5.35376e-006
Heightened Def Con from 5.3538e-006 to 5.35493e-006
Heightened Def Con from 5.35872e-006 to 5.35973e-006
Heightened Def Con from 5.36002e-006 to 5.36027e-006
Heightened Def Con from 5.36403e-006 to 5.36403e-006
Heightened Def Con from 5.36403e-006 to 5.36406e-006
Heightened Def Con from 5.36414e-006 to 5.36439e-006
Heightened Def Con from 5.36677e-006 to 5.36678e-006
Heightened Def Con from 5.36772e-006 to 5.36797e-006
Heightened Def Con from 5.37167e-006 to 5.37267e-006
Heightened Def Con from 5.37677e-006 to 5.37877e-006
Heightened Def Con from 5.40941e-006 to 5.41141e-006
Heightened Def Con from 5.41202e-006 to 5.41304e-006
Heightened Def Con from 5.41326e-006 to 5.41339e-006
Heightened Def Con from 5.41437e-006 to 5.41462e-006
Heightened Def Con from 5.41602e-006 to 5.41615e-006
Heightened Def Con from 5.42554e-006 to 5.42754e-006
Heightened Def Con from 5.42792e-006 to 5.42805e-006
Heightened Def Con from 5.43202e-006 to 5.43227e-006
Heightened Def Con from 5.43227e-006 to 5.43241e-006
Heightened Def Con from 5.43584e-006 to 5.43596e-006
Heightened Def Con from 5.43955e-006 to 5.4398e-006
Heightened Def Con from 5.44132e-006 to 5.44146e-006
Heightened Def Con from 5.44728e-006 to 5.44928e-006
Heightened Def Con from 5.45461e-006 to 5.45475e-006
Heightened Def Con from 5.45497e-006 to 5.45609e-006
Heightened Def Con from 5.45895e-006 to 5.46007e-006
Heightened Def Con from 5.46328e-006 to 5.46343e-006
Heightened Def Con from 5.46558e-006 to 5.46758e-006
Heightened Def Con from 5.46839e-006 to 5.46952e-006
Heightened Def Con from 5.48109e-006 to 5.48309e-006
Heightened Def Con from 5.48976e-006 to 5.49078e-006
Heightened Def Con from 5.49229e-006 to 5.49429e-006
Heightened Def Con from 5.49875e-006 to 5.50075e-006
Heightened Def Con from 5.5167e-006 to 5.5187e-006
Heightened Def Con from 5.51903e-006 to 5.52103e-006
Heightened Def Con from 5.54193e-006 to 5.54305e-006
Heightened Def Con from 5.54361e-006 to 5.54474e-006
Heightened Def Con from 5.55124e-006 to 5.55126e-006
Heightened Def Con from 5.55126e-006 to 5.55128e-006
Heightened Def Con from 5.55345e-006 to 5.55359e-006
Heightened Def Con from 5.55452e-006 to 5.55465e-006
Heightened Def Con from 5.56001e-006 to 5.56026e-006
Heightened Def Con from 5.56054e-006 to 5.56055e-006
Heightened Def Con from 5.5611e-006 to 5.5631e-006
Heightened Def Con from 5.56528e-006 to 5.5664e-006
Heightened Def Con from 5.58e-006 to 5.58025e-006
Heightened Def Con from 5.58285e-006 to 5.58397e-006
Heightened Def Con from 5.5859e-006 to 5.58703e-006
Heightened Def Con from 5.60225e-006 to 5.60425e-006
Heightened Def Con from 5.60805e-006 to 5.61005e-006
Heightened Def Con from 5.61275e-006 to 5.61475e-006
Heightened Def Con from 5.61697e-006 to 5.61797e-006
Heightened Def Con from 5.6338e-006 to 5.63384e-006
Heightened Def Con from 5.63693e-006 to 5.63806e-006
Heightened Def Con from 5.64321e-006 to 5.64423e-006
Heightened Def Con from 5.64591e-006 to 5.64691e-006
Heightened Def Con from 5.65103e-006 to 5.65103e-006
Heightened Def Con from 5.65103e-006 to 5.65128e-006
Heightened Def Con from 5.65152e-006 to 5.65153e-006
Heightened Def Con from 5.65726e-006 to 5.65739e-006
Heightened Def Con from 5.67115e-006 to 5.67129e-006
Heightened Def Con from 5.67129e-006 to 5.67329e-006
Heightened Def Con from 5.67612e-006 to 5.67713e-006
Heightened Def Con from 5.67769e-006 to 5.6777e-006
Heightened Def Con from 5.6777e-006 to 5.67771e-006
Heightened Def Con from 5.67945e-006 to 5.6797e-006
Heightened Def Con from 5.68057e-006 to 5.6806e-006
Heightened Def Con from 5.6845e-006 to 5.6865e-006
Heightened Def Con from 5.70535e-006 to 5.70735e-006
Heightened Def Con from 5.71201e-006 to 5.71401e-006
Heightened Def Con from 5.71401e-006 to 5.71601e-006
Heightened Def Con from 5.74664e-006 to 5.74678e-006
Heightened Def Con from 5.74679e-006 to 5.74781e-006
Heightened Def Con from 5.7493e-006 to 5.74932e-006
Heightened Def Con from 5.75043e-006 to 5.75056e-006
Heightened Def Con from 5.75155e-006 to 5.75257e-006
Heightened Def Con from 5.75306e-006 to 5.75331e-006
Heightened Def Con from 5.75435e-006 to 5.75635e-006
Heightened Def Con from 5.81011e-006 to 5.81123e-006
Heightened Def Con from 5.82207e-006 to 5.82221e-006
Heightened Def Con from 5.82295e-006 to 5.82395e-006
Heightened Def Con from 5.83075e-006 to 5.83077e-006
Heightened Def Con from 5.8312e-006 to 5.83222e-006
Heightened Def Con from 5.83666e-006 to 5.83866e-006
Heightened Def Con from 5.84872e-006 to 5.84884e-006
Heightened Def Con from 5.8514e-006 to 5.8534e-006
Heightened Def Con from 5.85418e-006 to 5.85518e-006
Heightened Def Con from 5.85545e-006 to 5.85547e-006
Heightened Def Con from 5.85904e-006 to 5.86004e-006
Heightened Def Con from 5.86726e-006 to 5.8674e-006
Heightened Def Con from 6.06765e-006 to 6.06878e-006
Heightened Def Con from 6.0714e-006 to 6.0734e-006
Heightened Def Con from 6.07771e-006 to 6.07796e-006
Heightened Def Con from 6.07824e-006 to 6.07838e-006
Heightened Def Con from 6.08489e-006 to 6.08503e-006
Heightened Def Con from 6.08505e-006 to 6.08618e-006
Heightened Def Con from 6.08745e-006 to 6.0877e-006
Heightened Def Con from 6.08974e-006 to 6.08975e-006
Heightened Def Con from 6.09771e-006 to 6.09774e-006
Heightened Def Con from 6.11769e-006 to 6.11969e-006
Heightened Def Con from 6.18393e-006 to 6.18593e-006
Heightened Def Con from 6.18896e-006 to 6.18921e-006
Heightened Def Con from 6.19062e-006 to 6.19065e-006
Heightened Def Con from 6.19065e-006 to 6.19178e-006
Heightened Def Con from 6.19206e-006 to 6.19219e-006
Heightened Def Con from 6.19245e-006 to 6.19246e-006
Heightened Def Con from 6.1934e-006 to 6.1954e-006
Heightened Def Con from 6.20683e-006 to 6.20784e-006
Heightened Def Con from 6.20863e-006 to 6.21063e-006
Heightened Def Con from 6.24169e-006 to 6.24194e-006
Heightened Def Con from 6.2427e-006 to 6.24371e-006
Heightened Def Con from 6.24544e-006 to 6.24744e-006
Heightened Def Con from 6.24832e-006 to 6.24846e-006
Heightened Def Con from 6.24856e-006 to 6.24868e-006
Heightened Def Con from 6.24906e-006 to 6.25018e-006
Heightened Def Con from 6.25568e-006 to 6.25593e-006
Heightened Def Con from 6.25605e-006 to 6.25717e-006
Heightened Def Con from 6.27268e-006 to 6.27468e-006
Heightened Def Con from 6.3327e-006 to 6.33273e-006
Heightened Def Con from 6.33808e-006 to 6.33908e-006
Heightened Def Con from 6.34611e-006 to 6.34636e-006
Heightened Def Con from 6.34662e-006 to 6.34862e-006
Heightened Def Con from 6.36618e-006 to 6.3662e-006
Heightened Def Con from 6.37169e-006 to 6.37369e-006
Heightened Def Con from 6.43633e-006 to 6.43833e-006
Heightened Def Con from 6.43875e-006 to 6.44075e-006
Heightened Def Con from 6.44945e-006 to 6.45057e-006
Heightened Def Con from 6.45187e-006 to 6.4519e-006
Heightened Def Con from 6.45274e-006 to 6.45299e-006
Heightened Def Con from 6.46957e-006 to 6.47058e-006
Heightened Def Con from 6.47531e-006 to 6.47534e-006
Heightened Def Con from 6.47616e-006 to 6.47641e-006
Heightened Def Con from 6.47711e-006 to 6.47736e-006
Heightened Def Con from 6.48258e-006 to 6.48358e-006
Heightened Def Con from 6.48559e-006 to 6.48584e-006
Heightened Def Con from 6.491e-006 to 6.49112e-006
Heightened Def Con from 6.49187e-006 to 6.49201e-006
Heightened Def Con from 6.49217e-006 to 6.49317e-006
Heightened Def Con from 6.49848e-006 to 6.4986e-006
Heightened Def Con from 6.4989e-006 to 6.50002e-006
Heightened Def Con from 6.51653e-006 to 6.51853e-006
Heightened Def Con from 6.52071e-006 to 6.52173e-006
Heightened Def Con from 6.52174e-006 to 6.52175e-006
Heightened Def Con from 6.52178e-006 to 6.52291e-006
Heightened Def Con from 6.52329e-006 to 6.52529e-006
Heightened Def Con from 6.67622e-006 to 6.67735e-006
Heightened Def Con from 6.67777e-006 to 6.67802e-006
Heightened Def Con from 6.6809e-006 to 6.68102e-006
Heightened Def Con from 6.68535e-006 to 6.68536e-006
Heightened Def Con from 6.68538e-006 to 6.68738e-006
Heightened Def Con from 6.68958e-006 to 6.69158e-006
Heightened Def Con from 6.69345e-006 to 6.69545e-006
Heightened Def Con from 6.70146e-006 to 6.70149e-006
Heightened Def Con from 6.70431e-006 to 6.70543e-006
Heightened Def Con from 6.70912e-006 to 6.71014e-006
Heightened Def Con from 6.71064e-006 to 6.71165e-006
Heightened Def Con from 6.71523e-006 to 6.71536e-006
Heightened Def Con from 6.72091e-006 to 6.72105e-006
Heightened Def Con from 6.7226e-006 to 6.7246e-006
Heightened Def Con from 6.72588e-006 to 6.727e-006
Heightened Def Con from 6.72721e-006 to 6.72921e-006
Heightened Def Con from 6.73018e-006 to 6.7313e-006
Heightened Def Con from 6.73155e-006 to 6.73156e-006
Heightened Def Con from 6.75367e-006 to 6.75379e-006
Heightened Def Con from 6.7546e-006 to 6.75462e-006
Heightened Def Con from 6.7567e-006 to 6.7587e-006
Heightened Def Con from 6.76185e-006 to 6.76385e-006
Heightened Def Con from 6.76412e-006 to 6.76525e-006
Heightened Def Con from 6.76635e-006 to 6.7666e-006
Heightened Def Con from 6.83355e-006 to 6.8338e-006
Heightened Def Con from 6.83415e-006 to 6.83528e-006
Heightened Def Con from 6.83582e-006 to 6.83607e-006
Heightened Def Con from 6.83722e-006 to 6.83922e-006
Heightened Def Con from 6.84092e-006 to 6.84093e-006
Heightened Def Con from 6.84112e-006 to 6.84212e-006
Heightened Def Con from 6.84213e-006 to 6.84326e-006
Heightened Def Con from 6.84681e-006 to 6.84695e-006
Heightened Def Con from 6.84707e-006 to 6.8482e-006
Heightened Def Con from 6.84902e-006 to 6.84914e-006
Heightened Def Con from 6.85906e-006 to 6.85919e-006
Heightened Def Con from 6.88224e-006 to 6.88227e-006
Heightened Def Con from 6.88371e-006 to 6.88385e-006
Heightened Def Con from 6.88527e-006 to 6.88727e-006
Heightened Def Con from 6.88982e-006 to 6.89082e-006
Heightened Def Con from 6.89107e-006 to 6.89208e-006
Heightened Def Con from 6.8923e-006 to 6.89233e-006
Heightened Def Con from 6.89306e-006 to 6.89418e-006
Heightened Def Con from 6.89451e-006 to 6.89453e-006
Heightened Def Con from 6.89453e-006 to 6.89454e-006
Heightened Def Con from 6.89454e-006 to 6.89479e-006
Heightened Def Con from 6.8948e-006 to 6.8968e-006
Heightened Def Con from 6.89956e-006 to 6.90156e-006
Heightened Def Con from 6.92636e-006 to 6.92661e-006
Heightened Def Con from 6.92829e-006 to 6.92854e-006
Heightened Def Con from 6.92947e-006 to 6.92962e-006
Heightened Def Con from 6.92963e-006 to 6.93163e-006
Heightened Def Con from 6.93412e-006 to 6.93612e-006
Heightened Def Con from 7.02726e-006 to 7.02926e-006
Heightened Def Con from 7.02957e-006 to 7.02982e-006
Heightened Def Con from 7.03059e-006 to 7.03073e-006
Heightened Def Con from 7.03139e-006 to 7.03252e-006
Heightened Def Con from 7.03498e-006 to 7.03498e-006
Heightened Def Con from 7.035e-006 to 7.03503e-006
Heightened Def Con from 7.03622e-006 to 7.03734e-006
Heightened Def Con from 7.03805e-006 to 7.03806e-006
Heightened Def Con from 7.03854e-006 to 7.04054e-006
Heightened Def Con from 7.04059e-006 to 7.0416e-006
Heightened Def Con from 7.0422e-006 to 7.04333e-006
Heightened Def Con from 7.04377e-006 to 7.0438e-006
Heightened Def Con from 7.04773e-006 to 7.04885e-006
Heightened Def Con from 7.05024e-006 to 7.05224e-006
Heightened Def Con from 7.05323e-006 to 7.05348e-006
Heightened Def Con from 7.0544e-006 to 7.05441e-006
Heightened Def Con from 7.05441e-006 to 7.05466e-006
Heightened Def Con from 7.05623e-006 to 7.05823e-006
Heightened Def Con from 7.06723e-006 to 7.06748e-006
Heightened Def Con from 7.06748e-006 to 7.06861e-006
Heightened Def Con from 7.0742e-006 to 7.07522e-006
Heightened Def Con from 7.07641e-006 to 7.07655e-006
Heightened Def Con from 7.07783e-006 to 7.07808e-006
Heightened Def Con from 7.07835e-006 to 7.07935e-006
Heightened Def Con from 7.08047e-006 to 7.0805e-006
Heightened Def Con from 7.08075e-006 to 7.081e-006
Heightened Def Con from 7.08131e-006 to 7.08156e-006
Heightened Def Con from 7.08183e-006 to 7.08187e-006
Heightened Def Con from 7.08187e-006 to 7.08212e-006
Heightened Def Con from 7.09069e-006 to 7.09072e-006
Heightened Def Con from 7.1009e-006 to 7.10192e-006
Heightened Def Con from 7.10263e-006 to 7.10265e-006
Heightened Def Con from 7.10265e-006 to 7.10268e-006
Heightened Def Con from 7.10315e-006 to 7.10329e-006
Heightened Def Con from 7.10623e-006 to 7.10626e-006
Heightened Def Con from 7.10648e-006 to 7.10848e-006
Heightened Def Con from 7.10983e-006 to 7.11008e-006
Heightened Def Con from 7.11503e-006 to 7.11528e-006
Heightened Def Con from 7.11589e-006 to 7.11592e-006
Heightened Def Con from 7.11684e-006 to 7.11796e-006
Heightened Def Con from 7.11883e-006 to 7.12083e-006
Heightened Def Con from 7.12332e-006 to 7.12346e-006
Heightened Def Con from 7.13471e-006 to 7.13573e-006
Heightened Def Con from 7.13941e-006 to 7.14041e-006
Heightened Def Con from 7.15543e-006 to 7.15656e-006
Heightened Def Con from 7.15859e-006 to 7.15971e-006
Heightened Def Con from 7.16045e-006 to 7.16146e-006
Heightened Def Con from 7.16176e-006 to 7.16178e-006
Heightened Def Con from 7.16627e-006 to 7.16652e-006
Heightened Def Con from 7.17068e-006 to 7.17093e-006
Heightened Def Con from 7.17324e-006 to 7.17424e-006
Heightened Def Con from 7.18113e-006 to 7.18313e-006
Heightened Def Con from 7.19193e-006 to 7.19196e-006
Heightened Def Con from 7.19233e-006 to 7.19247e-006
Heightened Def Con from 7.19333e-006 to 7.19445e-006
Heightened Def Con from 7.19758e-006 to 7.19771e-006
Heightened Def Con from 7.19907e-006 to 7.19932e-006
Heightened Def Con from 7.20023e-006 to 7.20223e-006
Heightened Def Con from 7.21626e-006 to 7.21826e-006
Heightened Def Con from 7.22334e-006 to 7.22359e-006
Heightened Def Con from 7.22435e-006 to 7.2246e-006
Heightened Def Con from 7.22475e-006 to 7.22476e-006
Heightened Def Con from 7.22478e-006 to 7.22481e-006
Heightened Def Con from 7.22586e-006 to 7.22588e-006
Heightened Def Con from 7.22598e-006 to 7.22798e-006
Heightened Def Con from 7.23409e-006 to 7.23609e-006
Heightened Def Con from 7.23876e-006 to 7.23879e-006
Heightened Def Con from 7.24889e-006 to 7.24891e-006
Heightened Def Con from 7.24897e-006 to 7.249e-006
Heightened Def Con from 7.25053e-006 to 7.25253e-006
Heightened Def Con from 7.25483e-006 to 7.25497e-006
Heightened Def Con from 7.29197e-006 to 7.29299e-006
Heightened Def Con from 7.29329e-006 to 7.29332e-006
Heightened Def Con from 7.29343e-006 to 7.29445e-006
Heightened Def Con from 7.29511e-006 to 7.29525e-006
Heightened Def Con from 7.2953e-006 to 7.29555e-006
Heightened Def Con from 7.29695e-006 to 7.29808e-006
Heightened Def Con from 7.30305e-006 to 7.30505e-006
Heightened Def Con from 7.30783e-006 to 7.30784e-006
Heightened Def Con from 7.31196e-006 to 7.31221e-006
Heightened Def Con from 7.31221e-006 to 7.31224e-006
Heightened Def Con from 7.31236e-006 to 7.31349e-006
Heightened Def Con from 7.32107e-006 to 7.32132e-006
Heightened Def Con from 7.32239e-006 to 7.32264e-006
Heightened Def Con from 7.32341e-006 to 7.32342e-006
Heightened Def Con from 7.32609e-006 to 7.32809e-006
Heightened Def Con from 7.33184e-006 to 7.33209e-006
Heightened Def Con from 7.33261e-006 to 7.33286e-006
Heightened Def Con from 7.33372e-006 to 7.33372e-006
Heightened Def Con from 7.33372e-006 to 7.33474e-006
Heightened Def Con from 7.33823e-006 to 7.33935e-006
Heightened Def Con from 7.33974e-006 to 7.33976e-006
Heightened Def Con from 7.34594e-006 to 7.34694e-006
Heightened Def Con from 7.3534e-006 to 7.35342e-006
Heightened Def Con from 7.48371e-006 to 7.48484e-006
Heightened Def Con from 7.48887e-006 to 7.48912e-006
Heightened Def Con from 7.48988e-006 to 7.491e-006
Heightened Def Con from 7.49275e-006 to 7.49276e-006
Heightened Def Con from 7.49402e-006 to 7.49415e-006
Heightened Def Con from 7.4944e-006 to 7.49454e-006
Heightened Def Con from 7.49464e-006 to 7.49664e-006
Heightened Def Con from 7.50266e-006 to 7.50466e-006
Heightened Def Con from 7.50598e-006 to 7.50698e-006
Heightened Def Con from 7.51411e-006 to 7.51611e-006
Heightened Def Con from 7.51943e-006 to 7.51946e-006
Heightened Def Con from 7.52706e-006 to 7.52718e-006
Heightened Def Con from 7.52877e-006 to 7.52879e-006
Heightened Def Con from 7.52931e-006 to 7.53131e-006
Heightened Def Con from 7.54731e-006 to 7.54745e-006
Heightened Def Con from 7.54783e-006 to 7.54883e-006
Heightened Def Con from 7.54885e-006 to 7.54887e-006
Heightened Def Con from 7.54898e-006 to 7.54923e-006
Heightened Def Con from 7.54926e-006 to 7.54951e-006
Heightened Def Con from 7.55509e-006 to 7.55609e-006
Heightened Def Con from 7.57801e-006 to 7.57813e-006
Heightened Def Con from 7.57838e-006 to 7.5784e-006
Heightened Def Con from 7.5784e-006 to 7.5804e-006
Heightened Def Con from 7.5864e-006 to 7.58753e-006
Heightened Def Con from 7.58796e-006 to 7.5881e-006
Heightened Def Con from 7.58864e-006 to 7.58977e-006
Heightened Def Con from 7.63999e-006 to 7.64112e-006
Heightened Def Con from 7.64311e-006 to 7.64511e-006
Heightened Def Con from 7.6558e-006 to 7.65693e-006
Heightened Def Con from 7.6583e-006 to 7.65833e-006
Heightened Def Con from 7.65837e-006 to 7.65839e-006
Heightened Def Con from 7.6587e-006 to 7.65872e-006
Heightened Def Con from 7.65876e-006 to 7.65879e-006
Heightened Def Con from 7.65923e-006 to 7.66035e-006
Heightened Def Con from 7.66047e-006 to 7.66147e-006
Heightened Def Con from 7.66366e-006 to 7.66369e-006
Heightened Def Con from 7.6637e-006 to 7.66395e-006
Heightened Def Con from 7.66535e-006 to 7.66535e-006
Heightened Def Con from 7.66535e-006 to 7.66548e-006
Heightened Def Con from 7.66556e-006 to 7.66557e-006
Heightened Def Con from 7.66558e-006 to 7.66658e-006
Heightened Def Con from 7.67002e-006 to 7.67027e-006
Heightened Def Con from 7.67424e-006 to 7.67624e-006
Heightened Def Con from 7.67889e-006 to 7.67989e-006
Heightened Def Con from 7.68018e-006 to 7.68031e-006
Heightened Def Con from 7.68045e-006 to 7.68245e-006
Heightened Def Con from 7.68464e-006 to 7.68478e-006
Heightened Def Con from 7.68481e-006 to 7.68681e-006
Heightened Def Con from 7.70311e-006 to 7.70511e-006
Heightened Def Con from 7.71154e-006 to 7.71166e-006
Heightened Def Con from 7.71194e-006 to 7.71306e-006
Heightened Def Con from 7.71525e-006 to 7.71527e-006
Heightened Def Con from 7.71528e-006 to 7.71553e-006
Heightened Def Con from 7.71961e-006 to 7.71986e-006
Heightened Def Con from 7.72715e-006 to 7.7274e-006
Heightened Def Con from 7.72771e-006 to 7.72971e-006
Heightened Def Con from 7.73374e-006 to 7.73387e-006
Heightened Def Con from 7.7442e-006 to 7.7462e-006
Heightened Def Con from 7.86397e-006 to 7.8641e-006
Heightened Def Con from 7.86501e-006 to 7.86701e-006
Heightened Def Con from 7.86789e-006 to 7.86989e-006
Heightened Def Con from 7.87e-006 to 7.87013e-006
Heightened Def Con from 7.87179e-006 to 7.87379e-006
Heightened Def Con from 7.88028e-006 to 7.88031e-006
Heightened Def Con from 7.88228e-006 to 7.88242e-006
Heightened Def Con from 7.88251e-006 to 7.88364e-006
Heightened Def Con from 7.88386e-006 to 7.88498e-006
Heightened Def Con from 7.88686e-006 to 7.88787e-006
Heightened Def Con from 7.88824e-006 to 7.88837e-006
Heightened Def Con from 7.88974e-006 to 7.89174e-006
Heightened Def Con from 8.01982e-006 to 8.02095e-006
Heightened Def Con from 8.0226e-006 to 8.0226e-006
Heightened Def Con from 8.0226e-006 to 8.02262e-006
Heightened Def Con from 8.02273e-006 to 8.02287e-006
Heightened Def Con from 8.02293e-006 to 8.02493e-006
Heightened Def Con from 8.02552e-006 to 8.02577e-006
Heightened Def Con from 8.02586e-006 to 8.02588e-006
Heightened Def Con from 8.02634e-006 to 8.02648e-006
Heightened Def Con from 8.02717e-006 to 8.02718e-006
Heightened Def Con from 8.02784e-006 to 8.02884e-006
Heightened Def Con from 8.03491e-006 to 8.03493e-006
Heightened Def Con from 8.0366e-006 to 8.0386e-006
Heightened Def Con from 8.05441e-006 to 8.05466e-006
Heightened Def Con from 8.05989e-006 to 8.06002e-006
Heightened Def Con from 8.06002e-006 to 8.06103e-006
Heightened Def Con from 8.06325e-006 to 8.06438e-006
Heightened Def Con from 8.06933e-006 to 8.06935e-006
Heightened Def Con from 8.07075e-006 to 8.07088e-006
Heightened Def Con from 8.15912e-006 to 8.16112e-006
Heightened Def Con from 8.25456e-006 to 8.25468e-006
Heightened Def Con from 8.26029e-006 to 8.26229e-006
Heightened Def Con from 8.26364e-006 to 8.26564e-006
Heightened Def Con from 8.28222e-006 to 8.28236e-006
Heightened Def Con from 8.28797e-006 to 8.28822e-006
Heightened Def Con from 8.28921e-006 to 8.29033e-006
Heightened Def Con from 8.2918e-006 to 8.29194e-006
Heightened Def Con from 8.29204e-006 to 8.29229e-006
Heightened Def Con from 8.29232e-006 to 8.29234e-006
Heightened Def Con from 8.29281e-006 to 8.29481e-006
Heightened Def Con from 8.31084e-006 to 8.31085e-006
Heightened Def Con from 8.32856e-006 to 8.32968e-006
Heightened Def Con from 8.3306e-006 to 8.33061e-006
Heightened Def Con from 8.33136e-006 to 8.33237e-006
Heightened Def Con from 8.33793e-006 to 8.33796e-006
Heightened Def Con from 8.338e-006 to 8.33825e-006
Heightened Def Con from 8.33825e-006 to 8.33826e-006
Heightened Def Con from 8.33826e-006 to 8.33828e-006
Heightened Def Con from 8.34058e-006 to 8.34072e-006
Heightened Def Con from 8.35198e-006 to 8.35398e-006
Heightened Def Con from 8.39711e-006 to 8.39714e-006
Heightened Def Con from 8.39751e-006 to 8.39951e-006
Heightened Def Con from 8.39954e-006 to 8.40154e-006
Heightened Def Con from 8.40767e-006 to 8.40967e-006
Heightened Def Con from 8.41419e-006 to 8.41433e-006
Heightened Def Con from 8.42482e-006 to 8.42507e-006
Heightened Def Con from 8.43167e-006 to 8.4328e-006
Heightened Def Con from 8.43417e-006 to 8.43617e-006
Heightened Def Con from 8.44284e-006 to 8.44385e-006
Heightened Def Con from 8.44385e-006 to 8.44388e-006
Heightened Def Con from 8.44576e-006 to 8.44578e-006
Heightened Def Con from 8.44578e-006 to 8.44678e-006
Heightened Def Con from 8.44815e-006 to 8.44915e-006
Heightened Def Con from 8.46592e-006 to 8.46595e-006
Heightened Def Con from 8.46615e-006 to 8.46617e-006
Heightened Def Con from 8.46664e-006 to 8.46667e-006
Heightened Def Con from 8.47021e-006 to 8.47023e-006
Heightened Def Con from 8.47023e-006 to 8.47048e-006
Heightened Def Con from 8.47048e-006 to 8.47073e-006
Heightened Def Con from 8.47123e-006 to 8.47135e-006
Heightened Def Con from 8.47145e-006 to 8.47147e-006
Heightened Def Con from 8.47283e-006 to 8.47483e-006
Heightened Def Con from 8.47757e-006 to 8.4776e-006
Heightened Def Con from 8.47783e-006 to 8.47784e-006
Heightened Def Con from 8.47811e-006 to 8.48011e-006
Heightened Def Con from 8.4843e-006 to 8.48455e-006
Heightened Def Con from 8.48467e-006 to 8.48569e-006
Heightened Def Con from 8.53613e-006 to 8.53616e-006
Heightened Def Con from 8.53683e-006 to 8.53795e-006
Heightened Def Con from 8.53817e-006 to 8.5382e-006
Heightened Def Con from 8.53919e-006 to 8.54119e-006
Heightened Def Con from 8.54737e-006 to 8.54749e-006
Heightened Def Con from 8.54842e-006 to 8.54955e-006
Heightened Def Con from 8.54964e-006 to 8.55066e-006
Heightened Def Con from 8.55225e-006 to 8.55337e-006
Heightened Def Con from 8.57159e-006 to 8.57171e-006
Heightened Def Con from 8.57427e-006 to 8.57527e-006
Heightened Def Con from 8.57533e-006 to 8.57534e-006
Heightened Def Con from 8.57606e-006 to 8.57631e-006
Heightened Def Con from 8.57668e-006 to 8.57769e-006
Heightened Def Con from 8.58037e-006 to 8.5805e-006
Heightened Def Con from 8.58978e-006 to 8.59003e-006
Heightened Def Con from 8.5901e-006 to 8.59035e-006
Heightened Def Con from 8.59079e-006 to 8.59104e-006
Heightened Def Con from 8.59129e-006 to 8.59131e-006
Heightened Def Con from 8.59269e-006 to 8.59381e-006
Heightened Def Con from 8.59506e-006 to 8.59706e-006
Heightened Def Con from 8.59751e-006 to 8.59766e-006
Heightened Def Con from 8.60691e-006 to 8.60703e-006
Heightened Def Con from 8.60705e-006 to 8.60719e-006
Heightened Def Con from 8.60733e-006 to 8.60758e-006
Heightened Def Con from 8.60854e-006 to 8.61054e-006
Heightened Def Con from 8.62304e-006 to 8.62504e-006
Heightened Def Con from 8.63055e-006 to 8.63055e-006
Heightened Def Con from 8.63055e-006 to 8.63156e-006
Heightened Def Con from 8.63194e-006 to 8.63208e-006
Heightened Def Con from 8.63448e-006 to 8.63648e-006
Heightened Def Con from 8.66736e-006 to 8.66936e-006
Heightened Def Con from 8.67016e-006 to 8.67041e-006
Heightened Def Con from 8.67675e-006 to 8.67787e-006
Heightened Def Con from 8.68108e-006 to 8.68133e-006
Heightened Def Con from 8.68239e-006 to 8.68252e-006
Heightened Def Con from 8.68277e-006 to 8.68289e-006
Heightened Def Con from 8.68295e-006 to 8.68495e-006
Heightened Def Con from 8.7266e-006 to 8.72663e-006
Heightened Def Con from 8.73624e-006 to 8.73637e-006
Heightened Def Con from 8.74079e-006 to 8.74179e-006
Heightened Def Con from 8.742e-006 to 8.74201e-006
Heightened Def Con from 8.74253e-006 to 8.74366e-006
Heightened Def Con from 8.74468e-006 to 8.7458e-006
Heightened Def Con from 8.74669e-006 to 8.74694e-006
Heightened Def Con from 8.75091e-006 to 8.75103e-006
Heightened Def Con from 8.75162e-006 to 8.75262e-006
Heightened Def Con from 8.75435e-006 to 8.7546e-006
Heightened Def Con from 8.75891e-006 to 8.75905e-006
Heightened Def Con from 8.75911e-006 to 8.75914e-006
Heightened Def Con from 8.7597e-006 to 8.75982e-006
Heightened Def Con from 8.76203e-006 to 8.76206e-006
Heightened Def Con from 8.76448e-006 to 8.7655e-006
Heightened Def Con from 8.76707e-006 to 8.76907e-006
Heightened Def Con from 8.77181e-006 to 8.77281e-006
Heightened Def Con from 8.78625e-006 to 8.78737e-006
Heightened Def Con from 8.79059e-006 to 8.79259e-006
Heightened Def Con from 8.82259e-006 to 8.82271e-006
Heightened Def Con from 8.82518e-006 to 8.8253e-006
Heightened Def Con from 8.82736e-006 to 8.82838e-006
Heightened Def Con from 8.82885e-006 to 8.83085e-006
Heightened Def Con from 8.83176e-006 to 8.83189e-006
Heightened Def Con from 8.83465e-006 to 8.83478e-006
Heightened Def Con from 8.83514e-006 to 8.83539e-006
Heightened Def Con from 8.83824e-006 to 8.83849e-006
Heightened Def Con from 8.84363e-006 to 8.84563e-006
Heightened Def Con from 8.84808e-006 to 8.84833e-006
Heightened Def Con from 8.86909e-006 to 8.86934e-006
Heightened Def Con from 8.87087e-006 to 8.87187e-006
Heightened Def Con from 8.87279e-006 to 8.87379e-006
Heightened Def Con from 8.87425e-006 to 8.87625e-006
Heightened Def Con from 8.87968e-006 to 8.87969e-006
Heightened Def Con from 8.88023e-006 to 8.88037e-006
Heightened Def Con from 8.88226e-006 to 8.88238e-006
Heightened Def Con from 8.88429e-006 to 8.88454e-006
Heightened Def Con from 8.88893e-006 to 8.88907e-006
Heightened Def Con from 8.89006e-006 to 8.89206e-006
Heightened Def Con from 8.89419e-006 to 8.89619e-006
Heightened Def Con from 8.90519e-006 to 8.90719e-006
Heightened Def Con from 9.05113e-006 to 9.05313e-006
Heightened Def Con from 9.0571e-006 to 9.05713e-006
Heightened Def Con from 9.06017e-006 to 9.06217e-006
Heightened Def Con from 9.06239e-006 to 9.06242e-006
Heightened Def Con from 9.06796e-006 to 9.06996e-006
Heightened Def Con from 9.07119e-006 to 9.07319e-006
Heightened Def Con from 9.07738e-006 to 9.07763e-006
Heightened Def Con from 9.07963e-006 to 9.07965e-006
Heightened Def Con from 9.08184e-006 to 9.08184e-006
Heightened Def Con from 9.08184e-006 to 9.08209e-006
Heightened Def Con from 9.08218e-006 to 9.08231e-006
Heightened Def Con from 9.0834e-006 to 9.08365e-006
Heightened Def Con from 9.08365e-006 to 9.08378e-006
Heightened Def Con from 9.08494e-006 to 9.08519e-006
Heightened Def Con from 9.08558e-006 to 9.08572e-006
Heightened Def Con from 9.09178e-006 to 9.09192e-006
Heightened Def Con from 9.09201e-006 to 9.09226e-006
Heightened Def Con from 9.09227e-006 to 9.0934e-006
Heightened Def Con from 9.0934e-006 to 9.09442e-006
Heightened Def Con from 9.10022e-006 to 9.10035e-006
Heightened Def Con from 9.10126e-006 to 9.10129e-006
Heightened Def Con from 9.10314e-006 to 9.10317e-006
Heightened Def Con from 9.10421e-006 to 9.10533e-006
Heightened Def Con from 9.10614e-006 to 9.10639e-006
Heightened Def Con from 9.10814e-006 to 9.10814e-006
Heightened Def Con from 9.10882e-006 to 9.10994e-006
Heightened Def Con from 9.11435e-006 to 9.11635e-006
Heightened Def Con from 9.15012e-006 to 9.15212e-006
Heightened Def Con from 9.16663e-006 to 9.16775e-006
Heightened Def Con from 9.17004e-006 to 9.17029e-006
Heightened Def Con from 9.17139e-006 to 9.1724e-006
Heightened Def Con from 9.17275e-006 to 9.17278e-006
Heightened Def Con from 9.17469e-006 to 9.17472e-006
Heightened Def Con from 9.178e-006 to 9.178e-006
Heightened Def Con from 9.178e-006 to 9.178e-006
Heightened Def Con from 9.178e-006 to 9.17813e-006
Heightened Def Con from 9.18014e-006 to 9.18028e-006
Heightened Def Con from 9.18038e-006 to 9.18138e-006
Heightened Def Con from 9.18138e-006 to 9.1825e-006
Heightened Def Con from 9.18782e-006 to 9.18883e-006
Heightened Def Con from 9.19869e-006 to 9.19883e-006
Heightened Def Con from 9.19887e-006 to 9.19901e-006
Heightened Def Con from 9.2004e-006 to 9.20043e-006
Heightened Def Con from 9.20048e-006 to 9.20073e-006
Heightened Def Con from 9.20077e-006 to 9.20189e-006
Heightened Def Con from 9.2077e-006 to 9.20772e-006
Heightened Def Con from 9.20832e-006 to 9.20857e-006
Heightened Def Con from 9.20884e-006 to 9.20909e-006
Heightened Def Con from 9.20918e-006 to 9.20921e-006
Heightened Def Con from 9.21002e-006 to 9.21015e-006
Heightened Def Con from 9.21556e-006 to 9.21581e-006
Heightened Def Con from 9.21635e-006 to 9.21637e-006
Heightened Def Con from 9.21637e-006 to 9.21662e-006
Heightened Def Con from 9.22211e-006 to 9.22411e-006
Heightened Def Con from 9.22494e-006 to 9.22606e-006
Heightened Def Con from 9.22809e-006 to 9.22823e-006
Heightened Def Con from 9.22826e-006 to 9.22851e-006
Heightened Def Con from 9.22958e-006 to 9.22972e-006
Heightened Def Con from 9.30476e-006 to 9.30501e-006
Heightened Def Con from 9.30777e-006 to 9.30977e-006
Heightened Def Con from 9.31009e-006 to 9.31034e-006
Heightened Def Con from 9.32763e-006 to 9.32963e-006
Heightened Def Con from 9.32996e-006 to 9.32999e-006
Heightened Def Con from 9.33024e-006 to 9.33037e-006
Heightened Def Con from 9.33041e-006 to 9.33154e-006
Heightened Def Con from 9.41041e-006 to 9.41241e-006
Heightened Def Con from 9.43093e-006 to 9.43118e-006
Heightened Def Con from 9.43149e-006 to 9.43262e-006
Heightened Def Con from 9.43714e-006 to 9.43827e-006
Heightened Def Con from 9.44151e-006 to 9.44152e-006
Heightened Def Con from 9.44501e-006 to 9.44613e-006
Heightened Def Con from 9.44634e-006 to 9.44746e-006
Heightened Def Con from 9.45931e-006 to 9.46043e-006
Heightened Def Con from 9.46252e-006 to 9.46365e-006
Heightened Def Con from 9.46831e-006 to 9.47031e-006
Heightened Def Con from 9.47162e-006 to 9.47187e-006
Heightened Def Con from 9.47411e-006 to 9.47611e-006
Heightened Def Con from 9.47642e-006 to 9.47667e-006
Heightened Def Con from 9.47786e-006 to 9.47789e-006
Heightened Def Con from 9.47806e-006 to 9.47809e-006
Heightened Def Con from 9.48099e-006 to 9.48211e-006
Heightened Def Con from 9.48237e-006 to 9.4825e-006
Heightened Def Con from 9.48764e-006 to 9.48789e-006
Heightened Def Con from 9.49935e-006 to 9.49935e-006
Heightened Def Con from 9.50045e-006 to 9.50059e-006
Heightened Def Con from 9.50138e-006 to 9.50152e-006
Heightened Def Con from 9.50267e-006 to 9.50467e-006
Heightened Def Con from 9.50781e-006 to 9.50893e-006
Heightened Def Con from 9.51169e-006 to 9.51194e-006
Heightened Def Con from 9.5125e-006 to 9.51253e-006
Heightened Def Con from 9.51466e-006 to 9.51467e-006
Heightened Def Con from 9.51469e-006 to 9.51582e-006
Heightened Def Con from 9.51936e-006 to 9.51961e-006
Heightened Def Con from 9.52609e-006 to 9.52623e-006
Heightened Def Con from 9.52865e-006 to 9.52977e-006
Heightened Def Con from 9.52989e-006 to 9.52992e-006
Heightened Def Con from 9.53011e-006 to 9.53211e-006
Heightened Def Con from 9.53292e-006 to 9.53492e-006
Heightened Def Con from 9.55145e-006 to 9.55148e-006
Heightened Def Con from 9.55208e-006 to 9.55321e-006
Heightened Def Con from 9.55785e-006 to 9.5581e-006
Heightened Def Con from 9.55922e-006 to 9.55936e-006
Heightened Def Con from 9.56017e-006 to 9.5602e-006
Heightened Def Con from 9.56049e-006 to 9.56149e-006
Heightened Def Con from 9.56532e-006 to 9.56732e-006
Heightened Def Con from 9.61839e-006 to 9.61864e-006
Heightened Def Con from 9.6192e-006 to 9.61945e-006
Heightened Def Con from 9.6793e-006 to 9.67943e-006
Heightened Def Con from 9.6799e-006 to 9.67991e-006
Heightened Def Con from 9.6809e-006 to 9.68203e-006
Heightened Def Con from 9.68314e-006 to 9.68328e-006
Heightened Def Con from 9.68745e-006 to 9.68945e-006
Heightened Def Con from 9.70433e-006 to 9.70436e-006
Heightened Def Con from 9.70469e-006 to 9.70669e-006
Heightened Def Con from 9.71326e-006 to 9.7134e-006
Heightened Def Con from 9.71613e-006 to 9.71613e-006
Heightened Def Con from 9.7245e-006 to 9.72475e-006
Heightened Def Con from 9.72477e-006 to 9.72677e-006
Heightened Def Con from 9.72707e-006 to 9.72721e-006
Heightened Def Con from 9.72801e-006 to 9.72804e-006
Heightened Def Con from 9.72838e-006 to 9.72951e-006
Heightened Def Con from 9.73052e-006 to 9.73066e-006
Heightened Def Con from 9.73346e-006 to 9.73371e-006
Heightened Def Con from 9.73397e-006 to 9.73509e-006
Heightened Def Con from 9.736e-006 to 9.73615e-006
Heightened Def Con from 9.73621e-006 to 9.73733e-006
Heightened Def Con from 9.73865e-006 to 9.74065e-006
Heightened Def Con from 9.74877e-006 to 9.74879e-006
Heightened Def Con from 9.74879e-006 to 9.74904e-006
Heightened Def Con from 9.75195e-006 to 9.75197e-006
Heightened Def Con from 9.75419e-006 to 9.75444e-006
Heightened Def Con from 9.75665e-006 to 9.75778e-006
Heightened Def Con from 9.75821e-006 to 9.75934e-006
Heightened Def Con from 9.76073e-006 to 9.76086e-006
Heightened Def Con from 9.80213e-006 to 9.80225e-006
Heightened Def Con from 9.81005e-006 to 9.81019e-006
Heightened Def Con from 9.81034e-006 to 9.81234e-006
Heightened Def Con from 9.82634e-006 to 9.82834e-006
Heightened Def Con from 9.85845e-006 to 9.8587e-006
Heightened Def Con from 9.85918e-006 to 9.85943e-006
Heightened Def Con from 9.86411e-006 to 9.86512e-006
Heightened Def Con from 9.86512e-006 to 9.86712e-006
Heightened Def Con from 9.87313e-006 to 9.87315e-006
Heightened Def Con from 9.87452e-006 to 9.87553e-006
Heightened Def Con from 9.87746e-006 to 9.87858e-006
Heightened Def Con from 9.87859e-006 to 9.87862e-006
Heightened Def Con from 9.87862e-006 to 9.87865e-006
Heightened Def Con from 9.87866e-006 to 9.87879e-006
Heightened Def Con from 9.87879e-006 to 9.87904e-006
Heightened Def Con from 9.8834e-006 to 9.88453e-006
Heightened Def Con from 9.88785e-006 to 9.88898e-006
Heightened Def Con from 9.88957e-006 to 9.89157e-006
Heightened Def Con from 9.8924e-006 to 9.89241e-006
Heightened Def Con from 9.89762e-006 to 9.89962e-006
Heightened Def Con from 9.9e-006 to 9.901e-006
Heightened Def Con from 9.91034e-006 to 9.91059e-006
Heightened Def Con from 9.91184e-006 to 9.91384e-006
Heightened Def Con from 9.91438e-006 to 9.91452e-006
Heightened Def Con from 9.91809e-006 to 9.91811e-006
Heightened Def Con from 9.91811e-006 to 9.92011e-006
Heightened Def Con from 9.93183e-006 to 9.93208e-006
Heightened Def Con from 9.93233e-006 to 9.93333e-006
Heightened Def Con from 9.98562e-006 to 9.98674e-006
Heightened Def Con from 9.98711e-006 to 9.98824e-006
Heightened Def Con from 9.98943e-006 to 9.98945e-006
Heightened Def Con from 9.98945e-006 to 9.9897e-006
Heightened Def Con from 9.99006e-006 to 9.99006e-006
Heightened Def Con from 9.99008e-006 to 9.99121e-006
Heightened Def Con from 9.99376e-006 to 9.99488e-006
Heightened Def Con from 9.99524e-006 to 9.99724e-006
Heightened Def Con from 1.00273e-005 to 1.00284e-005
Heightened Def Con from 1.00322e-005 to 1.00323e-005
Heightened Def Con from 1.00327e-005 to 1.00327e-005
Heightened Def Con from 1.00328e-005 to 1.00331e-005
Heightened Def Con from 1.0034e-005 to 1.00351e-005
Heightened Def Con from 1.00355e-005 to 1.00375e-005
Heightened Def Con from 1.00375e-005 to 1.00386e-005
Heightened Def Con from 1.00404e-005 to 1.00415e-005
Heightened Def Con from 1.00439e-005 to 1.00441e-005
Heightened Def Con from 1.00527e-005 to 1.00528e-005
Heightened Def Con from 1.00531e-005 to 1.00541e-005
Heightened Def Con from 1.00564e-005 to 1.00584e-005
Heightened Def Con from 1.00608e-005 to 1.00628e-005
Heightened Def Con from 1.02049e-005 to 1.02052e-005
Heightened Def Con from 1.02059e-005 to 1.02069e-005
Heightened Def Con from 1.02098e-005 to 1.02099e-005
Heightened Def Con from 1.02156e-005 to 1.02168e-005
Heightened Def Con from 1.0217e-005 to 1.0218e-005
Heightened Def Con from 1.02286e-005 to 1.02288e-005
Heightened Def Con from 1.02288e-005 to 1.02298e-005
Heightened Def Con from 1.02324e-005 to 1.02335e-005
Heightened Def Con from 1.02335e-005 to 1.02355e-005
Heightened Def Con from 1.02355e-005 to 1.02358e-005
Heightened Def Con from 1.02361e-005 to 1.02361e-005
Heightened Def Con from 1.02361e-005 to 1.02381e-005
Heightened Def Con from 1.0242e-005 to 1.0244e-005
Heightened Def Con from 1.02462e-005 to 1.02482e-005
Heightened Def Con from 1.02578e-005 to 1.02598e-005
Heightened Def Con from 1.02714e-005 to 1.02726e-005
Heightened Def Con from 1.02741e-005 to 1.02752e-005
Heightened Def Con from 1.02753e-005 to 1.02753e-005
Heightened Def Con from 1.02774e-005 to 1.02775e-005
Heightened Def Con from 1.02837e-005 to 1.02857e-005
Heightened Def Con from 1.02868e-005 to 1.02888e-005
Heightened Def Con from 1.03076e-005 to 1.03078e-005
Heightened Def Con from 1.0342e-005 to 1.03423e-005
Heightened Def Con from 1.03423e-005 to 1.03423e-005
Heightened Def Con from 1.03424e-005 to 1.03444e-005
Heightened Def Con from 1.03464e-005 to 1.03464e-005
Heightened Def Con from 1.0351e-005 to 1.03512e-005
Heightened Def Con from 1.03528e-005 to 1.03529e-005
Heightened Def Con from 1.04498e-005 to 1.04509e-005
Heightened Def Con from 1.04514e-005 to 1.04517e-005
Heightened Def Con from 1.04523e-005 to 1.04523e-005
Heightened Def Con from 1.04523e-005 to 1.04524e-005
Heightened Def Con from 1.04534e-005 to 1.04554e-005
Heightened Def Con from 1.04561e-005 to 1.04571e-005
Heightened Def Con from 1.04585e-005 to 1.04595e-005
Heightened Def Con from 1.04639e-005 to 1.0464e-005
Heightened Def Con from 1.04643e-005 to 1.04643e-005
Heightened Def Con from 1.04659e-005 to 1.04662e-005
Heightened Def Con from 1.04667e-005 to 1.04669e-005
Heightened Def Con from 1.04681e-005 to 1.04701e-005
Heightened Def Con from 1.04982e-005 to 1.04984e-005
Heightened Def Con from 1.04995e-005 to 1.05006e-005
Heightened Def Con from 1.05008e-005 to 1.0502e-005
Heightened Def Con from 1.05054e-005 to 1.05054e-005
Heightened Def Con from 1.05059e-005 to 1.05079e-005
Heightened Def Con from 1.05096e-005 to 1.05116e-005
Heightened Def Con from 1.05256e-005 to 1.05259e-005
Heightened Def Con from 1.05298e-005 to 1.05298e-005
Heightened Def Con from 1.05311e-005 to 1.05314e-005
Heightened Def Con from 1.05337e-005 to 1.05339e-005
Heightened Def Con from 1.05342e-005 to 1.05343e-005
Heightened Def Con from 1.05377e-005 to 1.05378e-005
Heightened Def Con from 1.05383e-005 to 1.05385e-005
Heightened Def Con from 1.0542e-005 to 1.05422e-005
Heightened Def Con from 1.05422e-005 to 1.05423e-005
Heightened Def Con from 1.05424e-005 to 1.05435e-005
Heightened Def Con from 1.05454e-005 to 1.05464e-005
Heightened Def Con from 1.05476e-005 to 1.05479e-005
Heightened Def Con from 1.05481e-005 to 1.05493e-005
Heightened Def Con from 1.05493e-005 to 1.05505e-005
Heightened Def Con from 1.05539e-005 to 1.05542e-005
Heightened Def Con from 1.05591e-005 to 1.05593e-005
Heightened Def Con from 1.05893e-005 to 1.05896e-005
Heightened Def Con from 1.05898e-005 to 1.05898e-005
Heightened Def Con from 1.05898e-005 to 1.05908e-005
Heightened Def Con from 1.05926e-005 to 1.05937e-005
Heightened Def Con from 1.05939e-005 to 1.05941e-005
Heightened Def Con from 1.0595e-005 to 1.0596e-005
Heightened Def Con from 1.05974e-005 to 1.05984e-005
Heightened Def Con from 1.06076e-005 to 1.06079e-005
Heightened Def Con from 1.06079e-005 to 1.06099e-005
Heightened Def Con from 1.06127e-005 to 1.06127e-005
Heightened Def Con from 1.06155e-005 to 1.06166e-005
Heightened Def Con from 1.06192e-005 to 1.06204e-005
Heightened Def Con from 1.06214e-005 to 1.06234e-005
Heightened Def Con from 1.06257e-005 to 1.06267e-005
Heightened Def Con from 1.06274e-005 to 1.06285e-005
Heightened Def Con from 1.0629e-005 to 1.0631e-005
Heightened Def Con from 1.06366e-005 to 1.06368e-005
Heightened Def Con from 1.06368e-005 to 1.06388e-005
Heightened Def Con from 1.06588e-005 to 1.06591e-005
Heightened Def Con from 1.06598e-005 to 1.06618e-005
Heightened Def Con from 1.06676e-005 to 1.06676e-005
Heightened Def Con from 1.06676e-005 to 1.06687e-005
Heightened Def Con from 1.06738e-005 to 1.06741e-005
Heightened Def Con from 1.06744e-005 to 1.06744e-005
Heightened Def Con from 1.06887e-005 to 1.06898e-005
Heightened Def Con from 1.06921e-005 to 1.06941e-005
Heightened Def Con from 1.06985e-005 to 1.06985e-005
Heightened Def Con from 1.06985e-005 to 1.06988e-005
Heightened Def Con from 1.07003e-005 to 1.07005e-005
Heightened Def Con from 1.07025e-005 to 1.07025e-005
Heightened Def Con from 1.07025e-005 to 1.07045e-005
Heightened Def Con from 1.07057e-005 to 1.07077e-005
Heightened Def Con from 1.0708e-005 to 1.071e-005
Heightened Def Con from 1.07301e-005 to 1.07312e-005
Heightened Def Con from 1.07383e-005 to 1.07394e-005
Heightened Def Con from 1.07402e-005 to 1.07422e-005
Heightened Def Con from 1.07486e-005 to 1.07496e-005
Heightened Def Con from 1.07532e-005 to 1.07552e-005
Heightened Def Con from 1.08025e-005 to 1.08025e-005
Heightened Def Con from 1.08025e-005 to 1.08036e-005
Heightened Def Con from 1.08037e-005 to 1.08039e-005
Heightened Def Con from 1.08692e-005 to 1.08703e-005
Heightened Def Con from 1.08712e-005 to 1.08723e-005
Heightened Def Con from 1.0874e-005 to 1.0876e-005
Heightened Def Con from 1.08814e-005 to 1.08814e-005
Heightened Def Con from 1.08823e-005 to 1.08833e-005
Heightened Def Con from 1.0892e-005 to 1.08921e-005
Heightened Def Con from 1.08944e-005 to 1.08955e-005
Heightened Def Con from 1.08963e-005 to 1.08974e-005
Heightened Def Con from 1.09026e-005 to 1.09029e-005
Heightened Def Con from 1.09055e-005 to 1.09055e-005
Heightened Def Con from 1.09067e-005 to 1.09067e-005
Heightened Def Con from 1.09109e-005 to 1.09111e-005
Heightened Def Con from 1.09114e-005 to 1.09134e-005
Heightened Def Con from 1.09213e-005 to 1.09216e-005
Heightened Def Con from 1.09294e-005 to 1.09304e-005
Heightened Def Con from 1.09311e-005 to 1.09331e-005
Heightened Def Con from 1.09346e-005 to 1.09356e-005
Heightened Def Con from 1.09356e-005 to 1.09356e-005
Heightened Def Con from 1.09356e-005 to 1.09367e-005
Heightened Def Con from 1.09367e-005 to 1.09387e-005
Heightened Def Con from 1.09421e-005 to 1.09421e-005
Heightened Def Con from 1.09437e-005 to 1.09457e-005
Heightened Def Con from 1.09759e-005 to 1.09769e-005
Heightened Def Con from 1.09831e-005 to 1.09832e-005
Heightened Def Con from 1.09838e-005 to 1.09839e-005
Heightened Def Con from 1.09841e-005 to 1.09841e-005
Heightened Def Con from 1.09853e-005 to 1.09854e-005
Heightened Def Con from 1.09862e-005 to 1.09864e-005
Heightened Def Con from 1.09899e-005 to 1.09902e-005
Heightened Def Con from 1.09902e-005 to 1.09922e-005
Heightened Def Con from 1.10094e-005 to 1.10096e-005
Heightened Def Con from 1.10098e-005 to 1.10118e-005
Heightened Def Con from 1.10136e-005 to 1.10138e-005
Heightened Def Con from 1.1014e-005 to 1.10142e-005
Heightened Def Con from 1.10157e-005 to 1.10167e-005
Heightened Def Con from 1.10167e-005 to 1.1017e-005
Heightened Def Con from 1.10175e-005 to 1.10175e-005
Heightened Def Con from 1.1019e-005 to 1.102e-005
Heightened Def Con from 1.10207e-005 to 1.1021e-005
Heightened Def Con from 1.1021e-005 to 1.1021e-005
Heightened Def Con from 1.1023e-005 to 1.10232e-005
Heightened Def Con from 1.10234e-005 to 1.10246e-005
Heightened Def Con from 1.10282e-005 to 1.10302e-005
Heightened Def Con from 1.10302e-005 to 1.10312e-005
Heightened Def Con from 1.10312e-005 to 1.10313e-005
Heightened Def Con from 1.10333e-005 to 1.10333e-005
Heightened Def Con from 1.10367e-005 to 1.10387e-005
Heightened Def Con from 1.10459e-005 to 1.10479e-005
Heightened Def Con from 1.1054e-005 to 1.1054e-005
Heightened Def Con from 1.10555e-005 to 1.10555e-005
Heightened Def Con from 1.10561e-005 to 1.10562e-005
Heightened Def Con from 1.10589e-005 to 1.1059e-005
Heightened Def Con from 1.10608e-005 to 1.1061e-005
Heightened Def Con from 1.10616e-005 to 1.10618e-005
Heightened Def Con from 1.10679e-005 to 1.10699e-005
Heightened Def Con from 1.10711e-005 to 1.10731e-005
Heightened Def Con from 1.10764e-005 to 1.10765e-005
Heightened Def Con from 1.10776e-005 to 1.10778e-005
Heightened Def Con from 1.1081e-005 to 1.1083e-005
Heightened Def Con from 1.10934e-005 to 1.10937e-005
Heightened Def Con from 1.1095e-005 to 1.1095e-005
Heightened Def Con from 1.10954e-005 to 1.10955e-005
Heightened Def Con from 1.10986e-005 to 1.10989e-005
Heightened Def Con from 1.10993e-005 to 1.11004e-005
Heightened Def Con from 1.11004e-005 to 1.11004e-005
Heightened Def Con from 1.11066e-005 to 1.11077e-005
Heightened Def Con from 1.11426e-005 to 1.11427e-005
Heightened Def Con from 1.11432e-005 to 1.11434e-005
Heightened Def Con from 1.11449e-005 to 1.1145e-005
Heightened Def Con from 1.11455e-005 to 1.11457e-005
Heightened Def Con from 1.11459e-005 to 1.1146e-005
Heightened Def Con from 1.11495e-005 to 1.11507e-005
Heightened Def Con from 1.11508e-005 to 1.11509e-005
Heightened Def Con from 1.1153e-005 to 1.1155e-005
Heightened Def Con from 1.11556e-005 to 1.11556e-005
Heightened Def Con from 1.11556e-005 to 1.11559e-005
Heightened Def Con from 1.11583e-005 to 1.11585e-005
Heightened Def Con from 1.11593e-005 to 1.11594e-005
Heightened Def Con from 1.11595e-005 to 1.11605e-005
Heightened Def Con from 1.11639e-005 to 1.1165e-005
Heightened Def Con from 1.11654e-005 to 1.11656e-005
Heightened Def Con from 1.11673e-005 to 1.11675e-005
Heightened Def Con from 1.11767e-005 to 1.11768e-005
Heightened Def Con from 1.11866e-005 to 1.11877e-005
Heightened Def Con from 1.11877e-005 to 1.11897e-005
Heightened Def Con from 1.11919e-005 to 1.1193e-005
Heightened Def Con from 1.11937e-005 to 1.11938e-005
Heightened Def Con from 1.11938e-005 to 1.11948e-005
Heightened Def Con from 1.11956e-005 to 1.11968e-005
Heightened Def Con from 1.11972e-005 to 1.11992e-005
Heightened Def Con from 1.11999e-005 to 1.12e-005
Heightened Def Con from 1.12033e-005 to 1.12043e-005
Heightened Def Con from 1.12044e-005 to 1.12044e-005
Heightened Def Con from 1.12044e-005 to 1.12064e-005
Heightened Def Con from 1.12354e-005 to 1.12356e-005
Heightened Def Con from 1.12359e-005 to 1.12369e-005
Heightened Def Con from 1.1237e-005 to 1.12372e-005
Heightened Def Con from 1.12532e-005 to 1.12552e-005
Heightened Def Con from 1.12555e-005 to 1.12556e-005
Heightened Def Con from 1.12567e-005 to 1.12578e-005
Heightened Def Con from 1.12578e-005 to 1.12578e-005
Heightened Def Con from 1.12579e-005 to 1.12581e-005
Heightened Def Con from 1.12585e-005 to 1.12596e-005
Heightened Def Con from 1.1261e-005 to 1.12612e-005
Heightened Def Con from 1.12626e-005 to 1.12628e-005
Heightened Def Con from 1.12676e-005 to 1.12677e-005
Heightened Def Con from 1.12678e-005 to 1.12688e-005
[...]
Heightened Def Con from 5.48936e-005 to 5.48939e-005
Heightened Def Con from 5.49129e-005 to 5.49131e-005
Heightened Def Con from 5.49132e-005 to 5.49133e-005
Heightened Def Con from 5.49141e-005 to 5.49152e-005
Heightened Def Con from 5.4917e-005 to 5.49172e-005
Heightened Def Con from 5.49182e-005 to 5.49182e-005
Heightened Def Con from 5.49205e-005 to 5.49225e-005
Heightened Def Con from 5.49251e-005 to 5.49262e-005
Heightened Def Con from 5.49269e-005 to 5.49269e-005
Heightened Def Con from 5.49269e-005 to 5.49289e-005
Heightened Def Con from 5.49353e-005 to 5.49364e-005
Heightened Def Con from 5.49376e-005 to 5.49376e-005
Heightened Def Con from 5.49379e-005 to 5.49399e-005
Heightened Def Con from 5.49609e-005 to 5.49629e-005
Heightened Def Con from 5.49637e-005 to 5.49638e-005
Heightened Def Con from 5.49699e-005 to 5.49709e-005
Heightened Def Con from 5.49721e-005 to 5.49721e-005
Heightened Def Con from 5.49726e-005 to 5.49746e-005
Heightened Def Con from 5.49807e-005 to 5.49827e-005
Heightened Def Con from 5.49828e-005 to 5.49828e-005
Heightened Def Con from 5.49828e-005 to 5.49848e-005
Heightened Def Con from 5.50189e-005 to 5.5019e-005
Heightened Def Con from 5.50191e-005 to 5.50201e-005
Heightened Def Con from 5.50201e-005 to 5.50221e-005
Heightened Def Con from 5.50251e-005 to 5.50271e-005
Heightened Def Con from 5.50276e-005 to 5.50296e-005
Heightened Def Con from 5.50303e-005 to 5.50314e-005
Heightened Def Con from 5.50352e-005 to 5.50362e-005
Heightened Def Con from 5.50362e-005 to 5.50374e-005
Heightened Def Con from 5.50377e-005 to 5.50377e-005
Heightened Def Con from 5.50397e-005 to 5.50399e-005
Heightened Def Con from 5.504e-005 to 5.50401e-005
Heightened Def Con from 5.50401e-005 to 5.50421e-005
Heightened Def Con from 5.51251e-005 to 5.51263e-005
Heightened Def Con from 5.51283e-005 to 5.51293e-005
Heightened Def Con from 5.51293e-005 to 5.51295e-005
Heightened Def Con from 5.513e-005 to 5.5132e-005
Heightened Def Con from 5.51391e-005 to 5.51391e-005
Heightened Def Con from 5.51431e-005 to 5.51451e-005
Heightened Def Con from 5.51477e-005 to 5.51479e-005
Heightened Def Con from 5.51483e-005 to 5.51483e-005
Heightened Def Con from 5.51483e-005 to 5.51494e-005
Heightened Def Con from 5.5151e-005 to 5.5153e-005
Heightened Def Con from 5.5159e-005 to 5.5159e-005
Heightened Def Con from 5.51592e-005 to 5.51612e-005
Heightened Def Con from 5.51646e-005 to 5.51666e-005
Heightened Def Con from 5.54246e-005 to 5.54266e-005
Heightened Def Con from 5.54279e-005 to 5.54281e-005
Heightened Def Con from 5.54284e-005 to 5.54287e-005
Heightened Def Con from 5.54295e-005 to 5.54297e-005
Heightened Def Con from 5.54298e-005 to 5.54318e-005
Heightened Def Con from 5.54459e-005 to 5.5447e-005
Heightened Def Con from 5.54472e-005 to 5.54492e-005
Heightened Def Con from 5.54593e-005 to 5.54593e-005
Heightened Def Con from 5.54594e-005 to 5.54595e-005
Heightened Def Con from 5.54596e-005 to 5.54616e-005
Heightened Def Con from 5.54623e-005 to 5.54624e-005
Heightened Def Con from 5.54627e-005 to 5.54627e-005
Heightened Def Con from 5.54627e-005 to 5.54647e-005
Heightened Def Con from 5.54787e-005 to 5.54789e-005
Heightened Def Con from 5.54789e-005 to 5.54799e-005
Heightened Def Con from 5.54799e-005 to 5.54811e-005
Heightened Def Con from 5.54882e-005 to 5.54882e-005
Heightened Def Con from 5.54882e-005 to 5.54892e-005
Heightened Def Con from 5.54897e-005 to 5.54917e-005
Heightened Def Con from 5.54974e-005 to 5.54986e-005
Heightened Def Con from 5.54987e-005 to 5.55007e-005
Heightened Def Con from 5.55032e-005 to 5.55032e-005
Heightened Def Con from 5.55112e-005 to 5.55123e-005
Heightened Def Con from 5.55129e-005 to 5.55139e-005
Heightened Def Con from 5.55202e-005 to 5.55213e-005
Heightened Def Con from 5.55225e-005 to 5.55236e-005
Heightened Def Con from 5.55241e-005 to 5.55261e-005
Heightened Def Con from 5.55881e-005 to 5.55901e-005
Heightened Def Con from 5.55903e-005 to 5.55906e-005
Heightened Def Con from 5.55922e-005 to 5.55922e-005
Heightened Def Con from 5.55922e-005 to 5.55942e-005
Heightened Def Con from 5.56089e-005 to 5.56092e-005
Heightened Def Con from 5.56112e-005 to 5.56132e-005
Heightened Def Con from 5.56144e-005 to 5.56144e-005
Heightened Def Con from 5.56145e-005 to 5.56155e-005
Heightened Def Con from 5.5616e-005 to 5.5617e-005
Heightened Def Con from 5.56174e-005 to 5.56175e-005
Heightened Def Con from 5.56176e-005 to 5.56186e-005
Heightened Def Con from 5.56191e-005 to 5.56211e-005
Heightened Def Con from 5.56213e-005 to 5.56214e-005
Heightened Def Con from 5.56222e-005 to 5.56233e-005
Heightened Def Con from 5.56253e-005 to 5.56255e-005
Heightened Def Con from 5.56331e-005 to 5.56333e-005
Heightened Def Con from 5.56347e-005 to 5.56367e-005
Heightened Def Con from 5.56393e-005 to 5.56413e-005
Heightened Def Con from 5.56895e-005 to 5.56915e-005
Heightened Def Con from 5.5693e-005 to 5.56941e-005
Heightened Def Con from 5.56941e-005 to 5.56941e-005
Heightened Def Con from 5.56944e-005 to 5.56955e-005
Heightened Def Con from 5.56957e-005 to 5.5696e-005
Heightened Def Con from 5.56961e-005 to 5.56962e-005
Heightened Def Con from 5.56973e-005 to 5.56973e-005
Heightened Def Con from 5.56974e-005 to 5.56975e-005
Heightened Def Con from 5.56989e-005 to 5.56992e-005
Heightened Def Con from 5.56993e-005 to 5.56996e-005
Heightened Def Con from 5.57008e-005 to 5.57009e-005
Heightened Def Con from 5.57018e-005 to 5.57029e-005
Heightened Def Con from 5.57032e-005 to 5.57032e-005
Heightened Def Con from 5.57071e-005 to 5.57071e-005
Heightened Def Con from 5.57071e-005 to 5.57074e-005
Heightened Def Con from 5.57117e-005 to 5.57117e-005
Heightened Def Con from 5.57119e-005 to 5.5712e-005
Heightened Def Con from 5.57122e-005 to 5.57133e-005
Heightened Def Con from 5.57153e-005 to 5.57155e-005
Heightened Def Con from 5.57166e-005 to 5.57167e-005
Heightened Def Con from 5.57206e-005 to 5.57209e-005
Heightened Def Con from 5.5721e-005 to 5.57213e-005
Heightened Def Con from 5.57229e-005 to 5.5724e-005
Heightened Def Con from 5.57241e-005 to 5.57261e-005
Heightened Def Con from 5.57741e-005 to 5.57742e-005
Heightened Def Con from 5.5775e-005 to 5.5777e-005
Heightened Def Con from 5.57773e-005 to 5.57793e-005
Heightened Def Con from 5.57829e-005 to 5.57849e-005
Heightened Def Con from 5.57922e-005 to 5.57925e-005
Heightened Def Con from 5.57927e-005 to 5.57937e-005
Heightened Def Con from 5.57938e-005 to 5.5795e-005
Heightened Def Con from 5.57977e-005 to 5.57978e-005
Heightened Def Con from 5.57981e-005 to 5.57981e-005
Heightened Def Con from 5.57983e-005 to 5.57993e-005
Heightened Def Con from 5.58079e-005 to 5.58081e-005
Heightened Def Con from 5.58095e-005 to 5.58095e-005
Heightened Def Con from 5.58097e-005 to 5.58108e-005
Heightened Def Con from 5.58108e-005 to 5.58109e-005
Heightened Def Con from 5.58109e-005 to 5.5812e-005
Heightened Def Con from 5.58121e-005 to 5.58141e-005
Heightened Def Con from 5.58167e-005 to 5.58178e-005
Heightened Def Con from 5.58196e-005 to 5.58198e-005
Heightened Def Con from 5.58207e-005 to 5.58208e-005
Heightened Def Con from 5.58216e-005 to 5.58217e-005
Heightened Def Con from 5.58275e-005 to 5.58277e-005
Heightened Def Con from 5.58333e-005 to 5.58336e-005
Heightened Def Con from 5.5834e-005 to 5.58341e-005
Heightened Def Con from 5.58342e-005 to 5.58342e-005
Heightened Def Con from 5.58343e-005 to 5.58343e-005
Heightened Def Con from 5.58344e-005 to 5.58344e-005
Heightened Def Con from 5.58345e-005 to 5.58347e-005
Heightened Def Con from 5.58368e-005 to 5.58368e-005
Heightened Def Con from 5.58368e-005 to 5.5837e-005
Heightened Def Con from 5.58374e-005 to 5.58377e-005
Heightened Def Con from 5.58381e-005 to 5.58382e-005
Heightened Def Con from 5.58385e-005 to 5.58397e-005
Heightened Def Con from 5.58398e-005 to 5.58398e-005
Heightened Def Con from 5.5844e-005 to 5.5846e-005
Heightened Def Con from 5.5862e-005 to 5.58623e-005
Heightened Def Con from 5.58625e-005 to 5.58625e-005
Heightened Def Con from 5.58625e-005 to 5.58626e-005
Heightened Def Con from 5.58631e-005 to 5.58632e-005
Heightened Def Con from 5.58632e-005 to 5.58632e-005
Heightened Def Con from 5.58632e-005 to 5.58632e-005
Heightened Def Con from 5.58632e-005 to 5.58634e-005
Heightened Def Con from 5.58653e-005 to 5.58663e-005
Heightened Def Con from 5.58681e-005 to 5.58682e-005
Heightened Def Con from 5.58685e-005 to 5.58705e-005
Heightened Def Con from 5.58725e-005 to 5.58727e-005
Heightened Def Con from 5.58737e-005 to 5.58748e-005
Heightened Def Con from 5.58985e-005 to 5.58995e-005
Heightened Def Con from 5.59636e-005 to 5.59636e-005
Heightened Def Con from 5.59636e-005 to 5.59637e-005
Heightened Def Con from 5.59639e-005 to 5.59642e-005
Heightened Def Con from 5.59642e-005 to 5.59642e-005
Heightened Def Con from 5.59656e-005 to 5.59658e-005
Heightened Def Con from 5.59662e-005 to 5.59663e-005
Heightened Def Con from 5.59665e-005 to 5.59685e-005
Heightened Def Con from 5.59701e-005 to 5.59704e-005
Heightened Def Con from 5.59952e-005 to 5.59972e-005
Heightened Def Con from 5.5999e-005 to 5.5999e-005
Heightened Def Con from 5.59996e-005 to 5.59998e-005
Heightened Def Con from 5.60011e-005 to 5.60022e-005
Heightened Def Con from 5.60022e-005 to 5.60033e-005
Heightened Def Con from 5.60036e-005 to 5.60036e-005
Heightened Def Con from 5.60036e-005 to 5.60056e-005
Heightened Def Con from 5.60076e-005 to 5.60079e-005
Heightened Def Con from 5.60096e-005 to 5.60106e-005
Heightened Def Con from 5.60107e-005 to 5.60109e-005
Heightened Def Con from 5.6012e-005 to 5.6014e-005
Heightened Def Con from 5.60145e-005 to 5.60165e-005
Heightened Def Con from 5.60273e-005 to 5.60275e-005
Heightened Def Con from 5.60279e-005 to 5.60279e-005
Heightened Def Con from 5.60953e-005 to 5.60956e-005
Heightened Def Con from 5.60962e-005 to 5.60972e-005
Heightened Def Con from 5.61009e-005 to 5.6102e-005
Heightened Def Con from 5.61038e-005 to 5.6104e-005
Heightened Def Con from 5.61043e-005 to 5.61043e-005
Heightened Def Con from 5.61063e-005 to 5.61083e-005
Heightened Def Con from 5.61174e-005 to 5.61186e-005
Heightened Def Con from 5.61186e-005 to 5.61206e-005
Heightened Def Con from 5.61215e-005 to 5.61226e-005
Heightened Def Con from 5.6134e-005 to 5.6136e-005
Heightened Def Con from 5.62903e-005 to 5.62914e-005
Heightened Def Con from 5.62917e-005 to 5.6292e-005
Heightened Def Con from 5.62921e-005 to 5.62941e-005
Heightened Def Con from 5.63421e-005 to 5.63421e-005
Heightened Def Con from 5.63421e-005 to 5.63423e-005
Heightened Def Con from 5.63429e-005 to 5.6344e-005
Heightened Def Con from 5.63443e-005 to 5.63463e-005
Heightened Def Con from 5.63527e-005 to 5.63547e-005
Heightened Def Con from 5.63609e-005 to 5.63629e-005
Heightened Def Con from 5.63671e-005 to 5.63674e-005
Heightened Def Con from 5.63685e-005 to 5.63696e-005
Heightened Def Con from 5.63722e-005 to 5.63725e-005
Heightened Def Con from 5.63733e-005 to 5.63734e-005
Heightened Def Con from 5.63737e-005 to 5.63757e-005
Heightened Def Con from 5.6385e-005 to 5.63852e-005
Heightened Def Con from 5.63854e-005 to 5.63864e-005
Heightened Def Con from 5.63868e-005 to 5.63878e-005
Heightened Def Con from 5.6388e-005 to 5.63891e-005
Heightened Def Con from 5.63891e-005 to 5.63892e-005
Heightened Def Con from 5.63892e-005 to 5.63892e-005
Heightened Def Con from 5.63897e-005 to 5.63898e-005
Heightened Def Con from 5.63905e-005 to 5.63906e-005
Heightened Def Con from 5.63907e-005 to 5.63917e-005
Heightened Def Con from 5.63946e-005 to 5.63956e-005
Heightened Def Con from 5.63963e-005 to 5.63973e-005
Heightened Def Con from 5.63973e-005 to 5.63973e-005
Heightened Def Con from 5.63973e-005 to 5.63985e-005
Heightened Def Con from 5.64422e-005 to 5.64442e-005
Heightened Def Con from 5.64446e-005 to 5.64446e-005
Heightened Def Con from 5.64448e-005 to 5.64448e-005
Heightened Def Con from 5.6449e-005 to 5.645e-005
Heightened Def Con from 5.64503e-005 to 5.64506e-005
Heightened Def Con from 5.64516e-005 to 5.64526e-005
Heightened Def Con from 5.64529e-005 to 5.64539e-005
Heightened Def Con from 5.64769e-005 to 5.64779e-005
Heightened Def Con from 5.6478e-005 to 5.6478e-005
Heightened Def Con from 5.64782e-005 to 5.64802e-005
Heightened Def Con from 5.64809e-005 to 5.64809e-005
Heightened Def Con from 5.64809e-005 to 5.6482e-005
Heightened Def Con from 5.64848e-005 to 5.64849e-005
Heightened Def Con from 5.64854e-005 to 5.64855e-005
Heightened Def Con from 5.64861e-005 to 5.64871e-005
Heightened Def Con from 5.64891e-005 to 5.64893e-005
Heightened Def Con from 5.64893e-005 to 5.64895e-005
Heightened Def Con from 5.64907e-005 to 5.64917e-005
Heightened Def Con from 5.64929e-005 to 5.64931e-005
Heightened Def Con from 5.64931e-005 to 5.64932e-005
Heightened Def Con from 5.64932e-005 to 5.64943e-005
Heightened Def Con from 5.64969e-005 to 5.64989e-005
Heightened Def Con from 5.65079e-005 to 5.65099e-005
Heightened Def Con from 5.65106e-005 to 5.65106e-005
Heightened Def Con from 5.65106e-005 to 5.65106e-005
Heightened Def Con from 5.65112e-005 to 5.65132e-005
Heightened Def Con from 5.65139e-005 to 5.6514e-005
Heightened Def Con from 5.65187e-005 to 5.6519e-005
Heightened Def Con from 5.65242e-005 to 5.65252e-005
Heightened Def Con from 5.65297e-005 to 5.65317e-005
Heightened Def Con from 5.65349e-005 to 5.65349e-005
Heightened Def Con from 5.6535e-005 to 5.65352e-005
Heightened Def Con from 5.65352e-005 to 5.65354e-005
Heightened Def Con from 5.6537e-005 to 5.6538e-005
Heightened Def Con from 5.65597e-005 to 5.65617e-005
Heightened Def Con from 5.657e-005 to 5.6571e-005
Heightened Def Con from 5.6571e-005 to 5.65721e-005
Heightened Def Con from 5.65724e-005 to 5.65724e-005
Heightened Def Con from 5.65724e-005 to 5.65725e-005
Heightened Def Con from 5.65725e-005 to 5.65727e-005
Heightened Def Con from 5.65786e-005 to 5.65786e-005
Heightened Def Con from 5.65794e-005 to 5.65794e-005
Heightened Def Con from 5.65794e-005 to 5.65804e-005
Heightened Def Con from 5.65814e-005 to 5.65834e-005
Heightened Def Con from 5.65898e-005 to 5.659e-005
Heightened Def Con from 5.65904e-005 to 5.65904e-005
Heightened Def Con from 5.65904e-005 to 5.65924e-005
Heightened Def Con from 5.66033e-005 to 5.66053e-005
Heightened Def Con from 5.66219e-005 to 5.66239e-005
Heightened Def Con from 5.66239e-005 to 5.6624e-005
Heightened Def Con from 5.66241e-005 to 5.66251e-005
Heightened Def Con from 5.66259e-005 to 5.66259e-005
Heightened Def Con from 5.66259e-005 to 5.66261e-005
Heightened Def Con from 5.66265e-005 +to 5.66275e-005
Heightened Def Con from 5.6636e-005 to 5.66371e-005
Heightened Def Con from 5.66773e-005 to 5.66773e-005
Heightened Def Con from 5.66774e-005 to 5.66776e-005
Heightened Def Con from 5.66792e-005 to 5.66795e-005
Heightened Def Con from 5.66798e-005 to 5.66799e-005
Heightened Def Con from 5.66821e-005 to 5.66824e-005
Heightened Def Con from 5.66824e-005 to 5.66824e-005
Heightened Def Con from 5.66825e-005 to 5.66835e-005
Heightened Def Con from 5.6685e-005 to 5.6686e-005
Heightened Def Con from 5.66875e-005 to 5.66885e-005
Heightened Def Con from 5.66895e-005 to 5.66915e-005
Heightened Def Con from 5.67075e-005 to 5.67076e-005
Heightened Def Con from 5.67076e-005 to 5.67077e-005
Heightened Def Con from 5.67077e-005 to 5.67088e-005
Heightened Def Con from 5.67091e-005 to 5.67093e-005
Heightened Def Con from 5.6712e-005 to 5.67122e-005
Heightened Def Con from 5.67124e-005 to 5.67125e-005
Heightened Def Con from 5.67129e-005 to 5.67131e-005
Heightened Def Con from 5.67137e-005 to 5.67157e-005
Heightened Def Con from 5.67162e-005 to 5.67164e-005
Heightened Def Con from 5.67182e-005 to 5.67185e-005
Heightened Def Con from 5.67187e-005 to 5.67198e-005
Heightened Def Con from 5.67199e-005 to 5.672e-005
Heightened Def Con from 5.67205e-005 to 5.67205e-005
Heightened Def Con from 5.67208e-005 to 5.67209e-005
Heightened Def Con from 5.67209e-005 to 5.67209e-005
Heightened Def Con from 5.67209e-005 to 5.6722e-005
Heightened Def Con from 5.67271e-005 to 5.67291e-005
Heightened Def Con from 5.67451e-005 to 5.67471e-005
Heightened Def Con from 5.67476e-005 to 5.67486e-005
Heightened Def Con from 5.67487e-005 to 5.67489e-005
Heightened Def Con from 5.67508e-005 to 5.67508e-005
Heightened Def Con from 5.6751e-005 to 5.6753e-005
Heightened Def Con from 5.67606e-005 to 5.67607e-005
Heightened Def Con from 5.67608e-005 to 5.67618e-005
Heightened Def Con from 5.67631e-005 to 5.67642e-005
Heightened Def Con from 5.67647e-005 to 5.67667e-005
Heightened Def Con from 5.68093e-005 to 5.68096e-005
Heightened Def Con from 5.68098e-005 to 5.68109e-005
Heightened Def Con from 5.68109e-005 to 5.68111e-005
Heightened Def Con from 5.68113e-005 to 5.68133e-005
Heightened Def Con from 5.68169e-005 to 5.68189e-005
Heightened Def Con from 5.68405e-005 to 5.68416e-005
Heightened Def Con from 5.68417e-005 to 5.68437e-005
Heightened Def Con from 5.68456e-005 to 5.68459e-005
Heightened Def Con from 5.68461e-005 to 5.68463e-005
Heightened Def Con from 5.68464e-005 to 5.68466e-005
Heightened Def Con from 5.68469e-005 to 5.6848e-005
Heightened Def Con from 5.68485e-005 to 5.68495e-005
Heightened Def Con from 5.68537e-005 to 5.68557e-005
Heightened Def Con from 5.68577e-005 to 5.68577e-005
Heightened Def Con from 5.68577e-005 to 5.68597e-005
Heightened Def Con from 5.69099e-005 to 5.69109e-005
Heightened Def Con from 5.6911e-005 to 5.69111e-005
Heightened Def Con from 5.69113e-005 to 5.69114e-005
Heightened Def Con from 5.69129e-005 to 5.6913e-005
Heightened Def Con from 5.6916e-005 to 5.6916e-005
Heightened Def Con from 5.6916e-005 to 5.6916e-005
Heightened Def Con from 5.6916e-005 to 5.6917e-005
Heightened Def Con from 5.69179e-005 to 5.69189e-005
Heightened Def Con from 5.69191e-005 to 5.69211e-005
Heightened Def Con from 5.69266e-005 to 5.69278e-005
Heightened Def Con from 5.69359e-005 to 5.69362e-005
Heightened Def Con from 5.69362e-005 to 5.69373e-005
Heightened Def Con from 5.69374e-005 to 5.69394e-005
Heightened Def Con from 5.69539e-005 to 5.69559e-005
Heightened Def Con from 5.69577e-005 to 5.69597e-005
Heightened Def Con from 5.69619e-005 to 5.69619e-005
Heightened Def Con from 5.6962e-005 to 5.6962e-005
Heightened Def Con from 5.6962e-005 to 5.6964e-005
Heightened Def Con from 5.69783e-005 to 5.69786e-005
Heightened Def Con from 5.69788e-005 to 5.69788e-005
Heightened Def Con from 5.698e-005 to 5.6981e-005
Heightened Def Con from 5.6981e-005 to 5.69813e-005
Heightened Def Con from 5.69826e-005 to 5.69846e-005
Heightened Def Con from 5.70618e-005 to 5.7062e-005
Heightened Def Con from 5.7062e-005 to 5.7062e-005
Heightened Def Con from 5.70621e-005 to 5.70622e-005
Heightened Def Con from 5.70624e-005 to 5.70624e-005
Heightened Def Con from 5.70624e-005 to 5.70626e-005
Heightened Def Con from 5.70628e-005 to 5.70631e-005
Heightened Def Con from 5.70632e-005 to 5.70652e-005
Heightened Def Con from 5.70667e-005 to 5.70677e-005
Heightened Def Con from 5.70677e-005 to 5.70687e-005
Heightened Def Con from 5.71031e-005 to 5.71034e-005
Heightened Def Con from 5.71044e-005 to 5.71064e-005
Heightened Def Con from 5.71071e-005 to 5.71071e-005
Heightened Def Con from 5.71074e-005 to 5.71075e-005
Heightened Def Con from 5.7108e-005 to 5.7108e-005
Heightened Def Con from 5.71081e-005 to 5.71083e-005
Heightened Def Con from 5.71083e-005 to 5.71094e-005
Heightened Def Con from 5.71097e-005 to 5.71098e-005
Heightened Def Con from 5.71104e-005 to 5.71124e-005
Heightened Def Con from 5.71144e-005 to 5.71147e-005
Heightened Def Con from 5.71196e-005 to 5.71196e-005
Heightened Def Con from 5.71198e-005 to 5.71201e-005
Heightened Def Con from 5.7121e-005 to 5.7121e-005

Date: Mon May 18 11:53:32 2015
Total elapsed time: 37.134 seconds.

tnom = 27
temp = 27
method = modified trap
totiter = 2758944
traniter = 2757427
tranpoints = 354171
accept = 200087
rejected = 163043
matrix size = 59
fillins = 106
solver = Normal
Matrix Compiler1: 8,22 KB object code size  2.3/1.0/[0.7]
Matrix Compiler2: 6,11 KB object code size  1.0/1.2/[0.9]


