Circuit: * D:\Eletronica\Sim\Draft5.asc

Direct Newton iteration for .op point succeeded.

Date: Fri Aug 02 10:21:08 2013
Total elapsed time: 0.073 seconds.

tnom = 27
temp = 27
method = modified trap
totiter = 2085
traniter = 2082
tranpoints = 1042
accept = 1042
rejected = 0
matrix size = 7
fillins = 2
solver = Normal
Matrix Compiler1: 726 bytes object code size  0.2/0.1/[0.1]
Matrix Compiler2: off  [0.0]/0.1/0.1


