Circuit: * C:\Users\cuki\Eletronica\Sim\Draft4.asc

Direct Newton iteration for .op point succeeded.

Date: Tue Feb 26 17:13:30 2013
Total elapsed time: 0.459 seconds.

tnom = 27
temp = 27
method = modified trap
totiter = 2816
traniter = 2789
tranpoints = 1220
accept = 1150
rejected = 70
matrix size = 11
fillins = 0
solver = Normal
Matrix Compiler1: 324 bytes object code size  0.3/0.2/[0.1]
Matrix Compiler2: off  [0.2]/0.3/0.5


