Circuit: * C:\Users\cuki\Eletronica\Sim\Draft3.asc

.OP point found by inspection.

Date: Tue Nov 27 14:58:59 2012
Total elapsed time: 0.033 seconds.

tnom = 27
temp = 27
method = modified trap
totiter = 2096
traniter = 2096
tranpoints = 1049
accept = 1049
rejected = 0
matrix size = 5
fillins = 0
solver = Normal
Matrix Compiler1: 168 bytes object code size  0.1/0.1/[0.0]
Matrix Compiler2: 355 bytes object code size  0.2/0.1/[0.1]


