Circuit: * D:\Eletronica\Sim\Draft1.asc

WARNING: Less than two connections to node N020.  This node is used by A8.
Direct Newton iteration for .op point succeeded.

Date: Wed Nov 06 10:52:12 2013
Total elapsed time: 0.700 seconds.

tnom = 27
temp = 27
method = modified trap
totiter = 128551
traniter = 128548
tranpoints = 35153
accept = 25225
rejected = 9928
matrix size = 23
fillins = 4
solver = Normal
Matrix Compiler1: 728 bytes object code size  0.5/0.3/[0.3]
Matrix Compiler2: off  [0.2]/0.4/0.3


