Circuit: * D:\Sim\Draft6.asc

WARNING: Less than two connections to node N002.  This node is used by E1.
.OP point found by inspection.

Date: Thu Apr 23 11:45:12 2015
Total elapsed time: 0.029 seconds.

tnom = 27
temp = 27
method = trap
totiter = 10
traniter = 0
tranpoints = 0
accept = 0
rejected = 0
matrix size = 4
fillins = 0
solver = Normal
Matrix Compiler1: 64 bytes object code size
Matrix Compiler2: 174 bytes object code size

