Circuit: * D:\Sim\igbt.asc

Direct Newton iteration for .op point succeeded.
Heightened Def Con from 0.00728381 to 0.00728381
Heightened Def Con from 0.00728381 to 0.00728381
Heightened Def Con from 0.00728381 to 0.00728381
Heightened Def Con from 0.00728381 to 0.00728381
Heightened Def Con from 0.00728381 to 0.00728381
Heightened Def Con from 0.00728381 +to 0.00728381
Heightened Def Con from 0.00728381 to 0.00728381
Heightened Def Con from 0.00728381 to 0.00728381
Heightened Def Con from 0.00728381 +to 0.00728381
Heightened Def Con from 0.00728381 to 0.00728381
Heightened Def Con from 0.00728381 to 0.00728381
Heightened Def Con from 0.00728381 to 0.00728381
Heightened Def Con from 0.00728381 to 0.00728381
Heightened Def Con from 0.00728381 to 0.00728381
Heightened Def Con from 0.00728381 to 0.00728381
Heightened Def Con from 0.00728381 to 0.00728381
Heightened Def Con from 0.00728381 to 0.00728381
Heightened Def Con from 0.00728381 to 0.00728381
Heightened Def Con from 0.00728381 to 0.00728381
Heightened Def Con from 0.00728381 to 0.00728381
Heightened Def Con from 0.00728381 to 0.00728381
Heightened Def Con from 0.00728381 to 0.00728382
Heightened Def Con from 0.00728382 to 0.00728382
Heightened Def Con from 0.00728382 to 0.00728382
Heightened Def Con from 0.00728382 +to 0.00728382
Heightened Def Con from 0.00728382 to 0.00728382
Heightened Def Con from 0.00728382 to 0.00728382
Heightened Def Con from 0.00728382 to 0.00728382
Heightened Def Con from 0.00728382 to 0.00728382
Heightened Def Con from 0.00728382 to 0.00728382
Heightened Def Con from 0.00728382 to 0.00728382
Heightened Def Con from 0.00728382 to 0.00728382
Heightened Def Con from 0.00728382 to 0.00728382
Heightened Def Con from 0.00728382 to 0.00728382
Heightened Def Con from 0.00728382 to 0.00728382
Heightened Def Con from 0.00728382 to 0.00728382
Heightened Def Con from 0.00728382 to 0.00728382
Heightened Def Con from 0.00728382 to 0.00728382
Heightened Def Con from 0.00728382 to 0.00728382
Heightened Def Con from 0.00728382 to 0.00728382
Heightened Def Con from 0.00728382 +to 0.00728382
Heightened Def Con from 0.00728382 to 0.00728382
Heightened Def Con from 0.00728382 to 0.00728382
Heightened Def Con from 0.00728382 to 0.00728382
Heightened Def Con from 0.00728382 to 0.00728382
Heightened Def Con from 0.00728382 to 0.00728382
Heightened Def Con from 0.00728382 to 0.00728382
Heightened Def Con from 0.00728382 to 0.00728382
Heightened Def Con from 0.00728382 to 0.00728382
Heightened Def Con from 0.00728382 to 0.00728382
Heightened Def Con from 0.00728382 to 0.00728382
Heightened Def Con from 0.00728382 to 0.00728382
Heightened Def Con from 0.00728382 to 0.00728382
Heightened Def Con from 0.00728382 to 0.00728382
Heightened Def Con from 0.00728382 to 0.00728382
Heightened Def Con from 0.00728382 to 0.00728382
Heightened Def Con from 0.00728382 to 0.00728382
Heightened Def Con from 0.00728382 to 0.00728382
Heightened Def Con from 0.00728382 to 0.00728382
Heightened Def Con from 0.00728382 to 0.00728382
Heightened Def Con from 0.00728382 to 0.00728382
Heightened Def Con from 0.00728382 to 0.00728382
Heightened Def Con from 0.00728382 to 0.00728382
Heightened Def Con from 0.00728382 to 0.00728382
Heightened Def Con from 0.00728382 to 0.00728382
Heightened Def Con from 0.00728382 to 0.00728382
Heightened Def Con from 0.00728382 to 0.00728382
Heightened Def Con from 0.00728382 to 0.00728382
Heightened Def Con from 0.00728382 to 0.00728382
Heightened Def Con from 0.00728382 to 0.00728382
Heightened Def Con from 0.00728382 to 0.00728382
Heightened Def Con from 0.00728382 to 0.00728382
Heightened Def Con from 0.00728382 to 0.00728382
Heightened Def Con from 0.00728382 +to 0.00728382
Heightened Def Con from 0.00728382 to 0.00728382
Heightened Def Con from 0.00728382 to 0.00728382
Heightened Def Con from 0.00728382 to 0.00728383
Heightened Def Con from 0.00728383 to 0.00728383
Heightened Def Con from 0.00728383 to 0.00728383
Heightened Def Con from 0.00728383 to 0.00728383
Heightened Def Con from 0.00728383 to 0.00728383
Heightened Def Con from 0.00728383 to 0.00728383
Heightened Def Con from 0.00728383 to 0.00728383
Heightened Def Con from 0.00728383 to 0.00728383
Heightened Def Con from 0.00728383 to 0.00728383
Heightened Def Con from 0.00728383 to 0.00728383
Heightened Def Con from 0.00728383 to 0.00728383
Heightened Def Con from 0.00728383 to 0.00728383
Heightened Def Con from 0.00728383 to 0.00728383
Heightened Def Con from 0.00728383 to 0.00728383
Heightened Def Con from 0.00728383 to 0.00728383
Heightened Def Con from 0.00728383 to 0.00728383
Heightened Def Con from 0.00728383 to 0.00728383
Heightened Def Con from 0.00728383 to 0.00728383
Heightened Def Con from 0.00728383 +to 0.00728383
Heightened Def Con from 0.00728383 to 0.00728383
Heightened Def Con from 0.00728383 to 0.00728383
Heightened Def Con from 0.00728383 to 0.00728383
Heightened Def Con from 0.00728383 to 0.00728383
Heightened Def Con from 0.00728383 to 0.00728383
Heightened Def Con from 0.00728383 to 0.00728383
Heightened Def Con from 0.00728383 to 0.00728383
Heightened Def Con from 0.00728383 to 0.00728383
Heightened Def Con from 0.00728383 to 0.00728383
Heightened Def Con from 0.00728383 to 0.00728383
Heightened Def Con from 0.00728383 to 0.00728383
Heightened Def Con from 0.00728383 to 0.00728383
Heightened Def Con from 0.00728383 to 0.00728383
Heightened Def Con from 0.00728383 to 0.00728383
Heightened Def Con from 0.00728383 to 0.00728383
Heightened Def Con from 0.00728383 to 0.00728383
Heightened Def Con from 0.00728383 to 0.00728383
Heightened Def Con from 0.00728383 to 0.00728383
Heightened Def Con from 0.00728383 to 0.00728383
Heightened Def Con from 0.00728383 to 0.00728383
Heightened Def Con from 0.00728383 to 0.00728383
Heightened Def Con from 0.00728383 to 0.00728383
Heightened Def Con from 0.00728383 to 0.00728383
Heightened Def Con from 0.00728383 to 0.00728383
Heightened Def Con from 0.00728383 to 0.00728383
Heightened Def Con from 0.00728383 to 0.00728383
Heightened Def Con from 0.00728383 +++to 0.00728383
Heightened Def Con from 0.00728383 to 0.00728383
Heightened Def Con from 0.00728383 to 0.00728383
Heightened Def Con from 0.00728383 to 0.00728383
Heightened Def Con from 0.00728383 to 0.00728383
Heightened Def Con from 0.00728383 to 0.00728383
Heightened Def Con from 0.00728383 to 0.00728383
Heightened Def Con from 0.00728383 to 0.00728383
Heightened Def Con from 0.00728383 to 0.00728383
Heightened Def Con from 0.00728383 to 0.00728383
Heightened Def Con from 0.00728383 to 0.00728383
Heightened Def Con from 0.00728383 to 0.00728383
Heightened Def Con from 0.00728383 to 0.00728383
Heightened Def Con from 0.00728383 to 0.00728383
Heightened Def Con from 0.00728383 to 0.00728383
Heightened Def Con from 0.00728383 to 0.00728383
Heightened Def Con from 0.00728383 to 0.00728383
Heightened Def Con from 0.00728383 to 0.00728383
Heightened Def Con from 0.00728383 to 0.00728383
Heightened Def Con from 0.00728383 to 0.00728383
Heightened Def Con from 0.00728383 +to 0.00728383
Heightened Def Con from 0.00728383 to 0.00728383
Heightened Def Con from 0.00728383 to 0.00728383
Heightened Def Con from 0.00728383 to 0.00728383
Heightened Def Con from 0.00728383 to 0.00728383
Heightened Def Con from 0.00728383 to 0.00728383
Heightened Def Con from 0.00728383 to 0.00728383
Heightened Def Con from 0.00728383 to 0.00728383
Heightened Def Con from 0.00728383 to 0.00728383
Heightened Def Con from 0.00728383 to 0.00728383
Heightened Def Con from 0.00728383 to 0.00728383
Heightened Def Con from 0.00728383 to 0.00728383
Heightened Def Con from 0.00728383 to 0.00728383
Heightened Def Con from 0.00728383 to 0.00728383
Heightened Def Con from 0.00728383 to 0.00728383
Heightened Def Con from 0.00728383 to 0.00728383
Heightened Def Con from 0.00728383 to 0.00728383
Heightened Def Con from 0.00728383 to 0.00728383
Heightened Def Con from 0.00728383 to 0.00728383
Heightened Def Con from 0.00728383 to 0.00728383
Heightened Def Con from 0.00728383 to 0.00728384
Heightened Def Con from 0.00728384 to 0.00728384
Heightened Def Con from 0.00728384 to 0.00728384
Heightened Def Con from 0.00728384 to 0.00728384
Heightened Def Con from 0.00728384 to 0.00728384
Heightened Def Con from 0.00728384 to 0.00728384
Heightened Def Con from 0.00728384 ++to 0.00728384
Heightened Def Con from 0.00728384 to 0.00728384
Heightened Def Con from 0.00728384 to 0.00728384
Heightened Def Con from 0.00728384 to 0.00728384
Heightened Def Con from 0.00728384 to 0.00728384
Heightened Def Con from 0.00728384 to 0.00728384
Heightened Def Con from 0.00728384 to 0.00728384
Heightened Def Con from 0.00728384 to 0.00728384
Heightened Def Con from 0.00728384 to 0.00728384
Heightened Def Con from 0.00728384 to 0.00728384
Heightened Def Con from 0.00728384 to 0.00728384
Heightened Def Con from 0.00728384 to 0.00728384
Heightened Def Con from 0.00728384 to 0.00728384
Heightened Def Con from 0.00728384 to 0.00728384
Heightened Def Con from 0.00728384 to 0.00728384
Heightened Def Con from 0.00728384 to 0.00728384
Heightened Def Con from 0.00728384 to 0.00728384
Heightened Def Con from 0.00728384 to 0.00728384
Heightened Def Con from 0.00728384 to 0.00728384
Heightened Def Con from 0.00728384 to 0.00728384
Heightened Def Con from 0.00728384 to 0.00728384
Heightened Def Con from 0.00728384 to 0.00728384
Heightened Def Con from 0.00728384 to 0.00728384
Heightened Def Con from 0.00728384 to 0.00728384
Heightened Def Con from 0.00728384 to 0.00728384
Heightened Def Con from 0.00728384 to 0.00728384
Heightened Def Con from 0.00728384 to 0.00728384
Heightened Def Con from 0.00728384 to 0.00728384
Heightened Def Con from 0.00728384 to 0.00728384
Heightened Def Con from 0.00728384 to 0.00728384
Heightened Def Con from 0.00728384 to 0.00728384
Heightened Def Con from 0.00728384 to 0.00728384
Heightened Def Con from 0.00728384 to 0.00728384
Heightened Def Con from 0.00728384 to 0.00728384
Heightened Def Con from 0.00728384 +to 0.00728384
Heightened Def Con from 0.00728384 to 0.00728384
Heightened Def Con from 0.00728384 to 0.00728384
Heightened Def Con from 0.00728384 to 0.00728384
Heightened Def Con from 0.00728384 +to 0.00728384
Heightened Def Con from 0.00728384 to 0.00728384
Heightened Def Con from 0.00728384 to 0.00728384
Heightened Def Con from 0.00728384 to 0.00728384
Heightened Def Con from 0.00728384 to 0.00728384
Heightened Def Con from 0.00728384 to 0.00728384
Heightened Def Con from 0.00728384 to 0.00728384
Heightened Def Con from 0.00728384 to 0.00728384
Heightened Def Con from 0.00728384 to 0.00728384
Heightened Def Con from 0.00728384 ++to 0.00728384
Heightened Def Con from 0.00728384 to 0.00728384
Heightened Def Con from 0.00728384 to 0.00728384
Heightened Def Con from 0.00728384 to 0.00728384
Heightened Def Con from 0.00728384 to 0.00728384
Heightened Def Con from 0.00728384 to 0.00728384
Heightened Def Con from 0.00728384 to 0.00728384
Heightened Def Con from 0.00728384 to 0.00728384
Heightened Def Con from 0.00728384 to 0.00728384
Heightened Def Con from 0.00728384 +to 0.00728384
Heightened Def Con from 0.00728384 to 0.00728384
Heightened Def Con from 0.00728384 to 0.00728384
Heightened Def Con from 0.00728384 to 0.00728384
Heightened Def Con from 0.00728384 to 0.00728384
Heightened Def Con from 0.00728384 to 0.00728384
Heightened Def Con from 0.00728384 to 0.00728384
Heightened Def Con from 0.00728384 to 0.00728384
Heightened Def Con from 0.00728384 ++to 0.00728384
Heightened Def Con from 0.00728384 to 0.00728384
Heightened Def Con from 0.00728384 to 0.00728385
Heightened Def Con from 0.00728385 to 0.00728385
Heightened Def Con from 0.00728385 to 0.00728385
Heightened Def Con from 0.00728385 to 0.00728385
Heightened Def Con from 0.00728385 to 0.00728385
Heightened Def Con from 0.00728385 to 0.00728385
Heightened Def Con from 0.00728385 to 0.00728385
Heightened Def Con from 0.00728385 to 0.00728385
Heightened Def Con from 0.00728385 to 0.00728385
Heightened Def Con from 0.00728385 to 0.00728385
Heightened Def Con from 0.00728385 to 0.00728385
Heightened Def Con from 0.00728385 to 0.00728385
Heightened Def Con from 0.00728385 to 0.00728385
Heightened Def Con from 0.00728385 to 0.00728385
Heightened Def Con from 0.00728385 to 0.00728385
Heightened Def Con from 0.00728385 to 0.00728385
Heightened Def Con from 0.00728385 to 0.00728385
Heightened Def Con from 0.00728385 to 0.00728385
Heightened Def Con from 0.00728385 +to 0.00728385
Heightened Def Con from 0.00728385 to 0.00728385
Heightened Def Con from 0.00728385 to 0.00728385
Heightened Def Con from 0.00728385 to 0.00728385
Heightened Def Con from 0.00728385 to 0.00728385
Heightened Def Con from 0.00728385 to 0.00728385
Heightened Def Con from 0.00728385 to 0.00728385
Heightened Def Con from 0.00728385 +to 0.00728385
Heightened Def Con from 0.00728385 to 0.00728385
Heightened Def Con from 0.00728385 to 0.00728385
Heightened Def Con from 0.00728385 +to 0.00728385
Heightened Def Con from 0.00728385 to 0.00728385
Heightened Def Con from 0.00728385 to 0.00728385
Heightened Def Con from 0.00728385 to 0.00728385
Heightened Def Con from 0.00728385 to 0.00728385
Heightened Def Con from 0.00728385 to 0.00728385
Heightened Def Con from 0.00728385 to 0.00728385
Heightened Def Con from 0.00728385 to 0.00728385
Heightened Def Con from 0.00728385 to 0.00728385
Heightened Def Con from 0.00728385 to 0.00728385
Heightened Def Con from 0.00728385 to 0.00728385
Heightened Def Con from 0.00728385 to 0.00728385
Heightened Def Con from 0.00728385 to 0.00728385
Heightened Def Con from 0.00728385 to 0.00728385
Heightened Def Con from 0.00728385 to 0.00728385
Heightened Def Con from 0.00728385 to 0.00728385
Heightened Def Con from 0.00728385 to 0.00728385
Heightened Def Con from 0.00728385 to 0.00728385
Heightened Def Con from 0.00728385 to 0.00728385
Heightened Def Con from 0.00728385 to 0.00728385
Heightened Def Con from 0.00728385 to 0.00728385
Heightened Def Con from 0.00728385 to 0.00728385
Heightened Def Con from 0.00728385 to 0.00728385
Heightened Def Con from 0.00728385 to 0.00728385
Heightened Def Con from 0.00728385 +to 0.00728385
Heightened Def Con from 0.00728385 to 0.00728385
Heightened Def Con from 0.00728385 to 0.00728385
Heightened Def Con from 0.00728385 to 0.00728385
Heightened Def Con from 0.00728385 to 0.00728385
Heightened Def Con from 0.00728385 to 0.00728385
Heightened Def Con from 0.00728385 to 0.00728385
Heightened Def Con from 0.00728385 to 0.00728385
Heightened Def Con from 0.00728385 +to 0.00728385
Heightened Def Con from 0.00728385 to 0.00728385
Heightened Def Con from 0.00728385 to 0.00728385
Heightened Def Con from 0.00728385 +to 0.00728385
Heightened Def Con from 0.00728385 to 0.00728385
Heightened Def Con from 0.00728385 to 0.00728385
Heightened Def Con from 0.00728385 to 0.00728385
Heightened Def Con from 0.00728385 to 0.00728385
Heightened Def Con from 0.00728385 to 0.00728385
Heightened Def Con from 0.00728385 to 0.00728385
Heightened Def Con from 0.00728385 to 0.00728385
Heightened Def Con from 0.00728385 to 0.00728385
Heightened Def Con from 0.00728385 to 0.00728385
Heightened Def Con from 0.00728385 to 0.00728385
Heightened Def Con from 0.00728385 to 0.00728385
Heightened Def Con from 0.00728385 to 0.00728385
Heightened Def Con from 0.00728385 +to 0.00728385
Heightened Def Con from 0.00728385 +to 0.00728385
Heightened Def Con from 0.00728385 to 0.00728385
Heightened Def Con from 0.00728385 to 0.00728385
Heightened Def Con from 0.00728385 to 0.00728385
Heightened Def Con from 0.00728385 to 0.00728385
Heightened Def Con from 0.00728385 +to 0.00728385
Heightened Def Con from 0.00728385 to 0.00728385
Heightened Def Con from 0.00728385 to 0.00728385
Heightened Def Con from 0.00728385 to 0.00728385
Heightened Def Con from 0.00728385 to 0.00728385
Heightened Def Con from 0.00728385 to 0.00728386
Heightened Def Con from 0.00728386 to 0.00728386
Heightened Def Con from 0.00728386 to 0.00728386
Heightened Def Con from 0.00728386 to 0.00728386
Heightened Def Con from 0.00728386 to 0.00728386
Heightened Def Con from 0.00728386 to 0.00728386
Heightened Def Con from 0.00728386 to 0.00728386
Heightened Def Con from 0.00728386 to 0.00728386
Heightened Def Con from 0.00728386 to 0.00728386
Heightened Def Con from 0.00728386 +to 0.00728386
Heightened Def Con from 0.00728386 to 0.00728386
Heightened Def Con from 0.00728386 to 0.00728386
Heightened Def Con from 0.00728386 to 0.00728386
Heightened Def Con from 0.00728386 to 0.00728386
Heightened Def Con from 0.00728386 to 0.00728386
Heightened Def Con from 0.00728386 to 0.00728386
Heightened Def Con from 0.00728386 to 0.00728386
Heightened Def Con from 0.00728386 to 0.00728386
Heightened Def Con from 0.00728386 to 0.00728386
Heightened Def Con from 0.00728386 to 0.00728386
Heightened Def Con from 0.00728386 to 0.00728386
Heightened Def Con from 0.00728386 to 0.00728386
Heightened Def Con from 0.00728386 +to 0.00728386
Heightened Def Con from 0.00728386 to 0.00728386
Heightened Def Con from 0.00728386 to 0.00728386
Heightened Def Con from 0.00728386 to 0.00728386
Heightened Def Con from 0.00728386 to 0.00728386
Heightened Def Con from 0.00728386 to 0.00728386
Heightened Def Con from 0.00728386 to 0.00728386
Heightened Def Con from 0.00728386 to 0.00728386
Heightened Def Con from 0.00728386 to 0.00728386
Heightened Def Con from 0.00728386 to 0.00728386
Heightened Def Con from 0.00728386 to 0.00728386
Heightened Def Con from 0.00728386 to 0.00728386
Heightened Def Con from 0.00728386 to 0.00728386
Heightened Def Con from 0.00728386 to 0.00728386
Heightened Def Con from 0.00728386 +to 0.00728386
Heightened Def Con from 0.00728386 to 0.00728386
Heightened Def Con from 0.00728386 to 0.00728386
Heightened Def Con from 0.00728386 to 0.00728386
Heightened Def Con from 0.00728386 to 0.00728386
Heightened Def Con from 0.00728386 ++to 0.00728386
Heightened Def Con from 0.00728386 to 0.00728386
Heightened Def Con from 0.00728386 to 0.00728386
Heightened Def Con from 0.00728386 to 0.00728386
Heightened Def Con from 0.00728386 to 0.00728386
Heightened Def Con from 0.00728386 to 0.00728386
Heightened Def Con from 0.00728386 to 0.00728386
Heightened Def Con from 0.00728386 to 0.00728386
Heightened Def Con from 0.00728386 to 0.00728386
Heightened Def Con from 0.00728386 +to 0.00728386
Heightened Def Con from 0.00728386 to 0.00728386
Heightened Def Con from 0.00728386 to 0.00728386
Heightened Def Con from 0.00728386 to 0.00728386
Heightened Def Con from 0.00728386 +to 0.00728386
Heightened Def Con from 0.00728386 to 0.00728386
Heightened Def Con from 0.00728386 to 0.00728386
Heightened Def Con from 0.00728386 to 0.00728386
Heightened Def Con from 0.00728386 to 0.00728386
Heightened Def Con from 0.00728386 to 0.00728386
Heightened Def Con from 0.00728386 to 0.00728386
Heightened Def Con from 0.00728386 to 0.00728386
Heightened Def Con from 0.00728386 to 0.00728386
Heightened Def Con from 0.00728386 to 0.00728386
Heightened Def Con from 0.00728386 to 0.00728386
Heightened Def Con from 0.00728386 to 0.00728386
Heightened Def Con from 0.00728386 to 0.00728386
Heightened Def Con from 0.00728386 to 0.00728386
Heightened Def Con from 0.00728386 to 0.00728386
Heightened Def Con from 0.00728386 to 0.00728386
Heightened Def Con from 0.00728386 to 0.00728386
Heightened Def Con from 0.00728386 +to 0.00728386
Heightened Def Con from 0.00728386 to 0.00728386
Heightened Def Con from 0.00728386 to 0.00728386
Heightened Def Con from 0.00728386 +to 0.00728386
Heightened Def Con from 0.00728386 to 0.00728386
Heightened Def Con from 0.00728386 to 0.00728386
Heightened Def Con from 0.00728386 to 0.00728386
Heightened Def Con from 0.00728386 to 0.00728386
Heightened Def Con from 0.00728386 to 0.00728386
Heightened Def Con from 0.00728386 to 0.00728386
Heightened Def Con from 0.00728386 to 0.00728386
Heightened Def Con from 0.00728386 to 0.00728386
Heightened Def Con from 0.00728386 to 0.00728386
Heightened Def Con from 0.00728386 to 0.00728386
Heightened Def Con from 0.00728386 to 0.00728386
Heightened Def Con from 0.00728386 to 0.00728386
Heightened Def Con from 0.00728386 to 0.00728386
Heightened Def Con from 0.00728386 to 0.00728386
Heightened Def Con from 0.00728386 to 0.00728386
Heightened Def Con from 0.00728386 +to 0.00728386
Heightened Def Con from 0.00728386 to 0.00728386
Heightened Def Con from 0.00728386 to 0.00728386
Heightened Def Con from 0.00728386 to 0.00728386
Heightened Def Con from 0.00728386 to 0.00728386
Heightened Def Con from 0.00728386 to 0.00728386
Heightened Def Con from 0.00728386 to 0.00728386
Heightened Def Con from 0.00728386 to 0.00728386
Heightened Def Con from 0.00728386 to 0.00728386
Heightened Def Con from 0.00728386 +to 0.00728386
Heightened Def Con from 0.00728386 to 0.00728386
Heightened Def Con from 0.00728386 to 0.00728386
Heightened Def Con from 0.00728386 to 0.00728386
Heightened Def Con from 0.00728386 to 0.00728386
Heightened Def Con from 0.00728386 to 0.00728386
Heightened Def Con from 0.00728386 to 0.00728386
Heightened Def Con from 0.00728386 to 0.00728386
Heightened Def Con from 0.00728386 to 0.00728386
Heightened Def Con from 0.00728386 to 0.00728386
Heightened Def Con from 0.00728386 to 0.00728386
Heightened Def Con from 0.00728386 to 0.00728386
Heightened Def Con from 0.00728386 to 0.00728386
Heightened Def Con from 0.00728386 to 0.00728386
Heightened Def Con from 0.00728386 to 0.00728386
Heightened Def Con from 0.00728386 to 0.00728386
Heightened Def Con from 0.00728386 to 0.00728386
Heightened Def Con from 0.00728386 to 0.00728386
Heightened Def Con from 0.00728386 to 0.00728386
Heightened Def Con from 0.00728386 to 0.00728386
Heightened Def Con from 0.00728386 to 0.00728386
Heightened Def Con from 0.00728386 to 0.00728386
Heightened Def Con from 0.00728386 to 0.00728386
Heightened Def Con from 0.00728386 to 0.00728386
Heightened Def Con from 0.00728386 to 0.00728386
Heightened Def Con from 0.00728386 to 0.00728386
Heightened Def Con from 0.00728386 to 0.00728386
Heightened Def Con from 0.00728386 to 0.00728386
Heightened Def Con from 0.00728386 to 0.00728386
Heightened Def Con from 0.00728386 to 0.00728386
Heightened Def Con from 0.00728386 to 0.00728386
Heightened Def Con from 0.00728386 +to 0.00728386
Heightened Def Con from 0.00728386 to 0.00728386
Heightened Def Con from 0.00728386 to 0.00728386
Heightened Def Con from 0.00728386 to 0.00728386
Heightened Def Con from 0.00728386 to 0.00728386
Heightened Def Con from 0.00728386 +to 0.00728386
Heightened Def Con from 0.00728386 to 0.00728386
Heightened Def Con from 0.00728386 to 0.00728386
Heightened Def Con from 0.00728386 to 0.00728386
Heightened Def Con from 0.00728386 to 0.00728386
Heightened Def Con from 0.00728386 to 0.00728386
Heightened Def Con from 0.00728386 to 0.00728387
Heightened Def Con from 0.00728387 to 0.00728387
Heightened Def Con from 0.00728387 to 0.00728387
Heightened Def Con from 0.00728387 to 0.00728387
Heightened Def Con from 0.00728387 to 0.00728387
Heightened Def Con from 0.00728387 to 0.00728387
Heightened Def Con from 0.00728387 to 0.00728387
Heightened Def Con from 0.00728387 to 0.00728387
Heightened Def Con from 0.00728387 to 0.00728387
Heightened Def Con from 0.00728387 to 0.00728387
Heightened Def Con from 0.00728387 to 0.00728387
Heightened Def Con from 0.00728387 to 0.00728387
Heightened Def Con from 0.00728387 to 0.00728387
Heightened Def Con from 0.00728387 to 0.00728387
Heightened Def Con from 0.00728387 to 0.00728387
Heightened Def Con from 0.00728387 to 0.00728387
Heightened Def Con from 0.00728387 +to 0.00728387
Heightened Def Con from 0.00728387 to 0.00728387
Heightened Def Con from 0.00728387 to 0.00728387
Heightened Def Con from 0.00728387 to 0.00728387
Heightened Def Con from 0.00728387 to 0.00728387
Heightened Def Con from 0.00728387 to 0.00728387
Heightened Def Con from 0.00728387 +to 0.00728387
Heightened Def Con from 0.00728387 to 0.00728387
Heightened Def Con from 0.00728387 to 0.00728387
Heightened Def Con from 0.00728387 to 0.00728387
Heightened Def Con from 0.00728387 to 0.00728387
Heightened Def Con from 0.00728387 to 0.00728387
Heightened Def Con from 0.00728387 to 0.00728387
Heightened Def Con from 0.00728387 to 0.00728387
Heightened Def Con from 0.00728387 to 0.00728387
Heightened Def Con from 0.00728387 to 0.00728387
Heightened Def Con from 0.00728387 to 0.00728387
Heightened Def Con from 0.00728387 to 0.00728387
Heightened Def Con from 0.00728387 to 0.00728387
Heightened Def Con from 0.00728387 to 0.00728387
Heightened Def Con from 0.00728387 to 0.00728387
Heightened Def Con from 0.00728387 to 0.00728387
Heightened Def Con from 0.00728387 to 0.00728387
Heightened Def Con from 0.00728387 to 0.00728387
Heightened Def Con from 0.00728387 to 0.00728387
Heightened Def Con from 0.00728387 to 0.00728387
Heightened Def Con from 0.00728387 to 0.00728387
Heightened Def Con from 0.00728387 to 0.00728387
Heightened Def Con from 0.00728387 +to 0.00728387
Heightened Def Con from 0.00728387 to 0.00728387
Heightened Def Con from 0.00728387 to 0.00728387
Heightened Def Con from 0.00728387 +to 0.00728387
Heightened Def Con from 0.00728387 to 0.00728387
Heightened Def Con from 0.00728387 to 0.00728387
Heightened Def Con from 0.00728387 to 0.00728387
Heightened Def Con from 0.00728387 +to 0.00728387
Heightened Def Con from 0.00728387 to 0.00728387
Heightened Def Con from 0.00728387 to 0.00728387
Heightened Def Con from 0.00728387 to 0.00728387
Heightened Def Con from 0.00728387 to 0.00728387
Heightened Def Con from 0.00728387 to 0.00728387
Heightened Def Con from 0.00728387 to 0.00728387
Heightened Def Con from 0.00728387 +to 0.00728387
Heightened Def Con from 0.00728387 to 0.00728387
Heightened Def Con from 0.00728387 to 0.00728387
Heightened Def Con from 0.00728387 to 0.00728387
Heightened Def Con from 0.00728387 to 0.00728387
Heightened Def Con from 0.00728387 to 0.00728387
Heightened Def Con from 0.00728387 to 0.00728387
Heightened Def Con from 0.00728387 to 0.00728387
Heightened Def Con from 0.00728387 to 0.00728387
Heightened Def Con from 0.00728387 to 0.00728387
Heightened Def Con from 0.00728387 to 0.00728387
Heightened Def Con from 0.00728387 to 0.00728387
Heightened Def Con from 0.00728387 to 0.00728387
Heightened Def Con from 0.00728387 to 0.00728387
Heightened Def Con from 0.00728387 to 0.00728387
Heightened Def Con from 0.00728387 +to 0.00728387
Heightened Def Con from 0.00728387 to 0.00728387
Heightened Def Con from 0.00728387 to 0.00728387
Heightened Def Con from 0.00728387 to 0.00728387
Heightened Def Con from 0.00728387 to 0.00728387
Heightened Def Con from 0.00728387 to 0.00728387
Heightened Def Con from 0.00728387 to 0.00728387
Heightened Def Con from 0.00728387 to 0.00728387
Heightened Def Con from 0.00728387 to 0.00728387
Heightened Def Con from 0.00728387 to 0.00728387
Heightened Def Con from 0.00728387 to 0.00728387
Heightened Def Con from 0.00728387 to 0.00728387
Heightened Def Con from 0.00728387 to 0.00728387
Heightened Def Con from 0.00728387 to 0.00728387
Heightened Def Con from 0.00728387 +to 0.00728387
Heightened Def Con from 0.00728387 to 0.00728387
Heightened Def Con from 0.00728387 to 0.00728387
Heightened Def Con from 0.00728387 to 0.00728387
Heightened Def Con from 0.00728387 to 0.00728387
Heightened Def Con from 0.00728387 to 0.00728387
Heightened Def Con from 0.00728387 to 0.00728387
Heightened Def Con from 0.00728387 to 0.00728387
Heightened Def Con from 0.00728387 to 0.00728387
Heightened Def Con from 0.00728387 to 0.00728387
Heightened Def Con from 0.00728387 +to 0.00728387
Heightened Def Con from 0.00728387 to 0.00728387
Heightened Def Con from 0.00728387 to 0.00728387
Heightened Def Con from 0.00728387 to 0.00728387
Heightened Def Con from 0.00728387 to 0.00728387
Heightened Def Con from 0.00728387 +to 0.00728387
Heightened Def Con from 0.00728387 to 0.00728387
Heightened Def Con from 0.00728387 +to 0.00728387
Heightened Def Con from 0.00728387 to 0.00728388
Heightened Def Con from 0.00728388 to 0.00728388
Heightened Def Con from 0.00728388 to 0.00728388
Heightened Def Con from 0.00728388 to 0.00728388
Heightened Def Con from 0.00728388 to 0.00728388
Heightened Def Con from 0.00728388 +to 0.00728388
Heightened Def Con from 0.00728388 +to 0.00728388
Heightened Def Con from 0.00728388 to 0.00728388
Heightened Def Con from 0.00728388 to 0.00728388
Heightened Def Con from 0.00728388 to 0.00728388
Heightened Def Con from 0.00728388 to 0.00728388
Heightened Def Con from 0.00728388 +to 0.00728388
Heightened Def Con from 0.00728388 to 0.00728388
Heightened Def Con from 0.00728388 +to 0.00728388
Heightened Def Con from 0.00728388 to 0.00728388
Heightened Def Con from 0.00728388 to 0.00728388
Heightened Def Con from 0.00728388 to 0.00728388
Heightened Def Con from 0.00728388 to 0.00728388
Heightened Def Con from 0.00728388 +to 0.00728388
Heightened Def Con from 0.00728388 to 0.00728388
Heightened Def Con from 0.00728388 ++++to 0.00728388
Heightened Def Con from 0.00728388 to 0.00728388
Heightened Def Con from 0.00728388 to 0.00728388
Heightened Def Con from 0.00728388 to 0.00728388
Heightened Def Con from 0.00728388 to 0.00728388
Heightened Def Con from 0.00728388 to 0.00728388
Heightened Def Con from 0.00728388 to 0.00728388
Heightened Def Con from 0.00728388 to 0.00728388
Heightened Def Con from 0.00728388 to 0.00728388
Heightened Def Con from 0.00728388 to 0.00728388
Heightened Def Con from 0.00728388 to 0.00728388
Heightened Def Con from 0.00728388 to 0.00728388
Heightened Def Con from 0.00728388 to 0.00728388
Heightened Def Con from 0.00728388 to 0.00728388
Heightened Def Con from 0.00728388 to 0.00728388
Heightened Def Con from 0.00728388 to 0.00728388
Heightened Def Con from 0.00728388 to 0.00728388
Heightened Def Con from 0.00728388 to 0.00728388
Heightened Def Con from 0.00728388 to 0.00728388
Heightened Def Con from 0.00728388 to 0.00728388
Heightened Def Con from 0.00728388 to 0.00728388
Heightened Def Con from 0.00728388 to 0.00728388
Heightened Def Con from 0.00728388 to 0.00728388
Heightened Def Con from 0.00728388 to 0.00728388
Heightened Def Con from 0.00728388 to 0.00728388
Heightened Def Con from 0.00728388 to 0.00728388
Heightened Def Con from 0.00728388 to 0.00728388
Heightened Def Con from 0.00728388 to 0.00728388
Heightened Def Con from 0.00728388 to 0.00728388
Heightened Def Con from 0.00728388 to 0.00728388
Heightened Def Con from 0.00728388 to 0.00728388
Heightened Def Con from 0.00728388 to 0.00728388
Heightened Def Con from 0.00728388 to 0.00728388
Heightened Def Con from 0.00728388 to 0.00728388
Heightened Def Con from 0.00728388 to 0.00728388
Heightened Def Con from 0.00728388 to 0.00728388
Heightened Def Con from 0.00728388 to 0.00728388
Heightened Def Con from 0.00728388 to 0.00728388
Heightened Def Con from 0.00728388 to 0.00728388
Heightened Def Con from 0.00728388 to 0.00728388
Heightened Def Con from 0.00728388 to 0.00728388
Heightened Def Con from 0.00728388 to 0.00728388
Heightened Def Con from 0.00728388 to 0.00728388
Heightened Def Con from 0.00728388 to 0.00728388
Heightened Def Con from 0.00728388 to 0.00728388
Heightened Def Con from 0.00728388 to 0.00728388
Heightened Def Con from 0.00728388 to 0.00728388
Heightened Def Con from 0.00728388 to 0.00728388
Heightened Def Con from 0.00728388 to 0.00728388
Heightened Def Con from 0.00728388 +to 0.00728388
Heightened Def Con from 0.00728388 to 0.00728388
Heightened Def Con from 0.00728388 to 0.00728388
Heightened Def Con from 0.00728388 to 0.00728388
Heightened Def Con from 0.00728388 to 0.00728388
Heightened Def Con from 0.00728388 to 0.00728388
Heightened Def Con from 0.00728388 to 0.00728388
Heightened Def Con from 0.00728388 to 0.00728388
Heightened Def Con from 0.00728388 to 0.00728388
Heightened Def Con from 0.00728388 +to 0.00728388
Heightened Def Con from 0.00728388 to 0.00728388
Heightened Def Con from 0.00728388 to 0.00728388
Heightened Def Con from 0.00728388 to 0.00728388
Heightened Def Con from 0.00728388 to 0.00728388
Heightened Def Con from 0.00728388 to 0.00728388
Heightened Def Con from 0.00728388 +to 0.00728388
Heightened Def Con from 0.00728388 to 0.00728388
Heightened Def Con from 0.00728388 to 0.00728388
Heightened Def Con from 0.00728388 to 0.00728388
Heightened Def Con from 0.00728388 to 0.00728388
Heightened Def Con from 0.00728388 +to 0.00728388
Heightened Def Con from 0.00728388 +to 0.00728388
Heightened Def Con from 0.00728388 to 0.00728388
Heightened Def Con from 0.00728388 to 0.00728388
Heightened Def Con from 0.00728388 to 0.00728388
Heightened Def Con from 0.00728388 to 0.00728388
Heightened Def Con from 0.00728388 to 0.00728388
Heightened Def Con from 0.00728388 to 0.00728388
Heightened Def Con from 0.00728388 to 0.00728388
Heightened Def Con from 0.00728388 to 0.00728388
Heightened Def Con from 0.00728388 to 0.00728388
Heightened Def Con from 0.00728388 to 0.00728388
Heightened Def Con from 0.00728388 to 0.00728388
Heightened Def Con from 0.00728388 +to 0.00728388
Heightened Def Con from 0.00728388 to 0.00728388
Heightened Def Con from 0.00728388 +to 0.00728388
Heightened Def Con from 0.00728388 +to 0.00728388
Heightened Def Con from 0.00728388 to 0.00728388
Heightened Def Con from 0.00728388 to 0.00728388
Heightened Def Con from 0.00728388 to 0.00728388
Heightened Def Con from 0.00728388 to 0.00728388
Heightened Def Con from 0.00728388 to 0.00728388
Heightened Def Con from 0.00728388 to 0.00728388
Heightened Def Con from 0.00728388 to 0.00728388
Heightened Def Con from 0.00728388 to 0.00728388
Heightened Def Con from 0.00728388 to 0.00728388
Heightened Def Con from 0.00728388 to 0.00728388
Heightened Def Con from 0.00728388 to 0.00728388
Heightened Def Con from 0.00728388 to 0.00728388
Heightened Def Con from 0.00728388 to 0.00728388
Heightened Def Con from 0.00728388 to 0.00728388
Heightened Def Con from 0.00728388 to 0.00728388
Heightened Def Con from 0.00728388 to 0.00728388
Heightened Def Con from 0.00728388 to 0.00728388
Heightened Def Con from 0.00728388 to 0.00728388
Heightened Def Con from 0.00728388 to 0.00728388
Heightened Def Con from 0.00728388 to 0.00728388
Heightened Def Con from 0.00728388 +to 0.00728389
Heightened Def Con from 0.00728389 to 0.00728389
Heightened Def Con from 0.00728389 to 0.00728389
Heightened Def Con from 0.00728389 +to 0.00728389
Heightened Def Con from 0.00728389 to 0.00728389
Heightened Def Con from 0.00728389 to 0.00728389
Heightened Def Con from 0.00728389 to 0.00728389
Heightened Def Con from 0.00728389 to 0.00728389
Heightened Def Con from 0.00728389 to 0.00728389
Heightened Def Con from 0.00728389 to 0.00728389
Heightened Def Con from 0.00728389 to 0.00728389
Heightened Def Con from 0.00728389 to 0.00728389
Heightened Def Con from 0.00728389 to 0.00728389
Heightened Def Con from 0.00728389 to 0.00728389
Heightened Def Con from 0.00728389 to 0.00728389
Heightened Def Con from 0.00728389 to 0.00728389
Heightened Def Con from 0.00728389 to 0.00728389
Heightened Def Con from 0.00728389 to 0.00728389
Heightened Def Con from 0.00728389 to 0.00728389
Heightened Def Con from 0.00728389 to 0.00728389
Heightened Def Con from 0.00728389 to 0.00728389
Heightened Def Con from 0.00728389 to 0.00728389
Heightened Def Con from 0.00728389 to 0.00728389
Heightened Def Con from 0.00728389 to 0.00728389
Heightened Def Con from 0.00728389 to 0.00728389
Heightened Def Con from 0.00728389 to 0.00728389
Heightened Def Con from 0.00728389 to 0.00728389
Heightened Def Con from 0.00728389 to 0.00728389
Heightened Def Con from 0.00728389 to 0.00728389
Heightened Def Con from 0.00728389 to 0.00728389
Heightened Def Con from 0.00728389 to 0.00728389
Heightened Def Con from 0.00728389 to 0.00728389
Heightened Def Con from 0.00728389 to 0.00728389
Heightened Def Con from 0.00728389 to 0.00728389
Heightened Def Con from 0.00728389 to 0.00728389
Heightened Def Con from 0.00728389 to 0.00728389
Heightened Def Con from 0.00728389 to 0.00728389
Heightened Def Con from 0.00728389 to 0.00728389
Heightened Def Con from 0.00728389 to 0.00728389
Heightened Def Con from 0.00728389 to 0.00728389
Heightened Def Con from 0.00728389 to 0.00728389
Heightened Def Con from 0.00728389 to 0.00728389
Heightened Def Con from 0.00728389 to 0.00728389
Heightened Def Con from 0.00728389 to 0.00728389
Heightened Def Con from 0.00728389 to 0.00728389
Heightened Def Con from 0.00728389 to 0.00728389
Heightened Def Con from 0.00728389 to 0.00728389
Heightened Def Con from 0.00728389 to 0.00728389
Heightened Def Con from 0.00728389 to 0.00728389
Heightened Def Con from 0.00728389 to 0.00728389
Heightened Def Con from 0.00728389 to 0.00728389
Heightened Def Con from 0.00728389 to 0.00728389
Heightened Def Con from 0.00728389 +to 0.00728389
Heightened Def Con from 0.00728389 to 0.00728389
Heightened Def Con from 0.00728389 to 0.00728389
Heightened Def Con from 0.00728389 to 0.00728389
Heightened Def Con from 0.00728389 to 0.00728389
Heightened Def Con from 0.00728389 to 0.00728389
Heightened Def Con from 0.00728389 to 0.00728389
Heightened Def Con from 0.00728389 to 0.00728389
Heightened Def Con from 0.00728389 to 0.00728389
Heightened Def Con from 0.00728389 to 0.00728389
Heightened Def Con from 0.00728389 +to 0.00728389
Heightened Def Con from 0.00728389 to 0.00728389
Heightened Def Con from 0.00728389 to 0.00728389
Heightened Def Con from 0.00728389 to 0.0072839
Heightened Def Con from 0.0072839 to 0.0072839
Heightened Def Con from 0.0072839 to 0.0072839
Heightened Def Con from 0.0072839 to 0.0072839
Heightened Def Con from 0.0072839 to 0.0072839
Heightened Def Con from 0.0072839 to 0.0072839
Heightened Def Con from 0.0072839 to 0.0072839
Heightened Def Con from 0.0072839 to 0.0072839
Heightened Def Con from 0.0072839 to 0.0072839
Heightened Def Con from 0.0072839 to 0.0072839
Heightened Def Con from 0.0072839 to 0.0072839
Heightened Def Con from 0.0072839 +to 0.0072839
Heightened Def Con from 0.0072839 to 0.0072839
Heightened Def Con from 0.0072839 to 0.0072839
Heightened Def Con from 0.0072839 to 0.0072839
Heightened Def Con from 0.0072839 +to 0.0072839
Heightened Def Con from 0.0072839 to 0.0072839
Heightened Def Con from 0.0072839 to 0.0072839
Heightened Def Con from 0.0072839 to 0.0072839
Heightened Def Con from 0.0072839 to 0.0072839
Heightened Def Con from 0.0072839 to 0.0072839
Heightened Def Con from 0.0072839 to 0.0072839
Heightened Def Con from 0.0072839 to 0.0072839
Heightened Def Con from 0.0072839 to 0.0072839
Heightened Def Con from 0.0072839 to 0.0072839
Heightened Def Con from 0.0072839 to 0.0072839
Heightened Def Con from 0.0072839 to 0.0072839
Heightened Def Con from 0.0072839 to 0.0072839
Heightened Def Con from 0.0072839 to 0.0072839
Heightened Def Con from 0.0072839 to 0.0072839
Heightened Def Con from 0.0072839 to 0.0072839
Heightened Def Con from 0.0072839 to 0.0072839
Heightened Def Con from 0.0072839 to 0.0072839
Heightened Def Con from 0.0072839 to 0.0072839
Heightened Def Con from 0.0072839 to 0.0072839
Heightened Def Con from 0.0072839 to 0.0072839
Heightened Def Con from 0.0072839 +to 0.0072839
Heightened Def Con from 0.0072839 to 0.0072839
Heightened Def Con from 0.0072839 to 0.0072839
Heightened Def Con from 0.0072839 +to 0.0072839
Heightened Def Con from 0.0072839 to 0.0072839
Heightened Def Con from 0.0072839 to 0.0072839
Heightened Def Con from 0.0072839 to 0.0072839
Heightened Def Con from 0.0072839 to 0.0072839
Heightened Def Con from 0.0072839 to 0.0072839
Heightened Def Con from 0.0072839 to 0.0072839
Heightened Def Con from 0.0072839 to 0.0072839
Heightened Def Con from 0.0072839 to 0.0072839
Heightened Def Con from 0.0072839 to 0.0072839
Heightened Def Con from 0.0072839 +to 0.0072839
Heightened Def Con from 0.0072839 to 0.0072839
Heightened Def Con from 0.0072839 to 0.0072839
Heightened Def Con from 0.0072839 to 0.0072839
Heightened Def Con from 0.0072839 to 0.0072839
Heightened Def Con from 0.0072839 to 0.0072839
Heightened Def Con from 0.0072839 to 0.0072839
Heightened Def Con from 0.0072839 to 0.0072839
Heightened Def Con from 0.0072839 to 0.0072839
Heightened Def Con from 0.0072839 to 0.0072839
Heightened Def Con from 0.0072839 to 0.0072839
Heightened Def Con from 0.0072839 to 0.0072839
Heightened Def Con from 0.0072839 to 0.0072839
Heightened Def Con from 0.0072839 to 0.0072839
Heightened Def Con from 0.0072839 +to 0.0072839
Heightened Def Con from 0.0072839 to 0.0072839
Heightened Def Con from 0.0072839 to 0.0072839
Heightened Def Con from 0.0072839 to 0.0072839
Heightened Def Con from 0.0072839 to 0.0072839
Heightened Def Con from 0.0072839 to 0.0072839
Heightened Def Con from 0.0072839 to 0.0072839
Heightened Def Con from 0.0072839 to 0.0072839
Heightened Def Con from 0.0072839 to 0.0072839
Heightened Def Con from 0.0072839 +to 0.0072839
Heightened Def Con from 0.0072839 to 0.0072839
Heightened Def Con from 0.0072839 to 0.0072839
Heightened Def Con from 0.0072839 to 0.0072839
Heightened Def Con from 0.0072839 to 0.0072839
Heightened Def Con from 0.0072839 to 0.0072839
Heightened Def Con from 0.0072839 to 0.0072839
Heightened Def Con from 0.0072839 to 0.0072839
Heightened Def Con from 0.0072839 to 0.0072839
Heightened Def Con from 0.0072839 to 0.0072839
Heightened Def Con from 0.0072839 to 0.0072839
Heightened Def Con from 0.0072839 +to 0.0072839
Heightened Def Con from 0.0072839 to 0.0072839
Heightened Def Con from 0.0072839 to 0.0072839
Heightened Def Con from 0.0072839 +to 0.0072839
Heightened Def Con from 0.0072839 to 0.0072839
Heightened Def Con from 0.0072839 to 0.0072839
Heightened Def Con from 0.0072839 to 0.0072839
Heightened Def Con from 0.0072839 +to 0.0072839
Heightened Def Con from 0.0072839 to 0.0072839
Heightened Def Con from 0.0072839 to 0.0072839
Heightened Def Con from 0.0072839 to 0.0072839
Heightened Def Con from 0.0072839 to 0.0072839
Heightened Def Con from 0.0072839 to 0.00728391
Heightened Def Con from 0.00728391 to 0.00728391
Heightened Def Con from 0.00728391 to 0.00728391
Heightened Def Con from 0.00728391 to 0.00728391
Heightened Def Con from 0.00728391 to 0.00728391
Heightened Def Con from 0.00728391 to 0.00728391
Heightened Def Con from 0.00728391 to 0.00728391
Heightened Def Con from 0.00728391 to 0.00728391
Heightened Def Con from 0.00728391 to 0.00728391
Heightened Def Con from 0.00728391 to 0.00728391
Heightened Def Con from 0.00728391 to 0.00728391
Heightened Def Con from 0.00728391 to 0.00728391
Heightened Def Con from 0.00728391 to 0.00728391
Heightened Def Con from 0.00728391 to 0.00728391
Heightened Def Con from 0.00728391 to 0.00728391
Heightened Def Con from 0.00728391 to 0.00728391
Heightened Def Con from 0.00728391 to 0.00728391
Heightened Def Con from 0.00728391 to 0.00728391
Heightened Def Con from 0.00728391 to 0.00728391
Heightened Def Con from 0.00728391 to 0.00728391
Heightened Def Con from 0.00728391 to 0.00728391
Heightened Def Con from 0.00728391 to 0.00728391
Heightened Def Con from 0.00728391 to 0.00728391
Heightened Def Con from 0.00728391 to 0.00728391
Heightened Def Con from 0.00728391 to 0.00728391
Heightened Def Con from 0.00728391 to 0.00728391
Heightened Def Con from 0.00728391 to 0.00728391
Heightened Def Con from 0.00728391 to 0.00728391
Heightened Def Con from 0.00728391 to 0.00728391
Heightened Def Con from 0.00728391 to 0.00728391
Heightened Def Con from 0.00728391 to 0.00728391
Heightened Def Con from 0.00728391 to 0.00728391
Heightened Def Con from 0.00728391 to 0.00728391
Heightened Def Con from 0.00728391 to 0.00728391
Heightened Def Con from 0.00728391 to 0.00728391
Heightened Def Con from 0.00728391 to 0.00728391
Heightened Def Con from 0.00728391 to 0.00728391
Heightened Def Con from 0.00728391 to 0.00728391
Heightened Def Con from 0.00728391 +to 0.00728391
Heightened Def Con from 0.00728391 +to 0.00728391
Heightened Def Con from 0.00728391 to 0.00728391
Heightened Def Con from 0.00728391 to 0.00728391
Heightened Def Con from 0.00728391 to 0.00728391
Heightened Def Con from 0.00728391 to 0.00728391
Heightened Def Con from 0.00728391 to 0.00728391
Heightened Def Con from 0.00728391 to 0.00728391
Heightened Def Con from 0.00728391 to 0.00728391
Heightened Def Con from 0.00728391 +to 0.00728391
Heightened Def Con from 0.00728391 to 0.00728391
Heightened Def Con from 0.00728391 +to 0.00728391
Heightened Def Con from 0.00728391 +to 0.00728391
Heightened Def Con from 0.00728391 to 0.00728391
Heightened Def Con from 0.00728391 to 0.00728391
Heightened Def Con from 0.00728391 to 0.00728392
Heightened Def Con from 0.00728392 to 0.00728392
Heightened Def Con from 0.00728392 to 0.00728392
Heightened Def Con from 0.00728392 to 0.00728392
Heightened Def Con from 0.00728392 to 0.00728392
Heightened Def Con from 0.00728392 to 0.00728392
Heightened Def Con from 0.00728392 to 0.00728392
Heightened Def Con from 0.00728392 +to 0.00728392
Heightened Def Con from 0.00728392 +to 0.00728392
Heightened Def Con from 0.00728392 to 0.00728392
Heightened Def Con from 0.00728392 to 0.00728392
Heightened Def Con from 0.00728392 to 0.00728392
Heightened Def Con from 0.00728392 to 0.00728392
Heightened Def Con from 0.00728392 to 0.00728392
Heightened Def Con from 0.00728392 to 0.00728392
Heightened Def Con from 0.00728392 to 0.00728392
Heightened Def Con from 0.00728392 to 0.00728392
Heightened Def Con from 0.00728392 to 0.00728392
Heightened Def Con from 0.00728392 to 0.00728392
Heightened Def Con from 0.00728392 to 0.00728392
Heightened Def Con from 0.00728392 to 0.00728392
Heightened Def Con from 0.00728392 to 0.00728392
Heightened Def Con from 0.00728392 to 0.00728392
Heightened Def Con from 0.00728392 to 0.00728392
Heightened Def Con from 0.00728392 to 0.00728392
Heightened Def Con from 0.00728392 to 0.00728392
Heightened Def Con from 0.00728392 to 0.00728393
Heightened Def Con from 0.00728393 to 0.00728393
Heightened Def Con from 0.00728393 to 0.00728393
Heightened Def Con from 0.00728393 to 0.00728393
Heightened Def Con from 0.00728393 to 0.00728393
Heightened Def Con from 0.00728393 to 0.00728393
Heightened Def Con from 0.00728393 to 0.00728393
Heightened Def Con from 0.00728393 to 0.00728393
Heightened Def Con from 0.00728393 to 0.00728393
Heightened Def Con from 0.00728393 to 0.00728393
Heightened Def Con from 0.00728393 to 0.00728393
Heightened Def Con from 0.00728393 to 0.00728393
Heightened Def Con from 0.00728393 to 0.00728393
Heightened Def Con from 0.00728393 to 0.00728393
Heightened Def Con from 0.00728393 to 0.00728393
Heightened Def Con from 0.00728393 to 0.00728393
Heightened Def Con from 0.00728393 to 0.00728393
Heightened Def Con from 0.00728393 +to 0.00728393
Heightened Def Con from 0.00728393 to 0.00728393
Heightened Def Con from 0.00728393 to 0.00728393
Heightened Def Con from 0.00728393 to 0.00728393
Heightened Def Con from 0.00728393 to 0.00728393
Heightened Def Con from 0.00728393 to 0.00728393
Heightened Def Con from 0.00728393 to 0.00728393
Heightened Def Con from 0.00728393 to 0.00728393
Heightened Def Con from 0.00728393 to 0.00728393
Heightened Def Con from 0.00728393 to 0.00728393
Heightened Def Con from 0.00728393 to 0.00728393
Heightened Def Con from 0.00728393 to 0.00728393
Heightened Def Con from 0.00728393 to 0.00728393
Heightened Def Con from 0.00728393 to 0.00728393
Heightened Def Con from 0.00728393 to 0.00728393
Heightened Def Con from 0.00728393 to 0.00728393
Heightened Def Con from 0.00728393 to 0.00728393
Heightened Def Con from 0.00728393 to 0.00728393
Heightened Def Con from 0.00728393 to 0.00728393
Heightened Def Con from 0.00728393 to 0.00728393
Heightened Def Con from 0.00728393 to 0.00728393
Heightened Def Con from 0.00728393 to 0.00728393
Heightened Def Con from 0.00728393 to 0.00728393
Heightened Def Con from 0.00728393 +to 0.00728393
Heightened Def Con from 0.00728393 to 0.00728393
Heightened Def Con from 0.00728393 to 0.00728393
Heightened Def Con from 0.00728393 to 0.00728393
Heightened Def Con from 0.00728393 to 0.00728393
Heightened Def Con from 0.00728393 to 0.00728393
Heightened Def Con from 0.00728393 to 0.00728393
Heightened Def Con from 0.00728393 to 0.00728393
Heightened Def Con from 0.00728393 to 0.00728393
Heightened Def Con from 0.00728393 to 0.00728393
Heightened Def Con from 0.00728393 to 0.00728393
Heightened Def Con from 0.00728393 to 0.00728393
Heightened Def Con from 0.00728393 +to 0.00728393
Heightened Def Con from 0.00728393 to 0.00728393
Heightened Def Con from 0.00728393 to 0.00728393
Heightened Def Con from 0.00728393 to 0.00728393
Heightened Def Con from 0.00728393 to 0.00728393
Heightened Def Con from 0.00728393 to 0.00728393
Heightened Def Con from 0.00728393 to 0.00728393
Heightened Def Con from 0.00728393 to 0.00728393
Heightened Def Con from 0.00728393 to 0.00728393
Heightened Def Con from 0.00728393 +to 0.00728393
Heightened Def Con from 0.00728393 to 0.00728393
Heightened Def Con from 0.00728393 to 0.00728393
Heightened Def Con from 0.00728393 to 0.00728393
Heightened Def Con from 0.00728393 to 0.00728393
Heightened Def Con from 0.00728393 to 0.00728393
Heightened Def Con from 0.00728393 to 0.00728393
Heightened Def Con from 0.00728393 to 0.00728394
Heightened Def Con from 0.00728394 to 0.00728394
Heightened Def Con from 0.00728394 to 0.00728394
Heightened Def Con from 0.00728394 to 0.00728394
Heightened Def Con from 0.00728394 to 0.00728394
Heightened Def Con from 0.00728394 ++to 0.00728394
Heightened Def Con from 0.00728394 +to 0.00728394
Heightened Def Con from 0.00728394 to 0.00728394
Heightened Def Con from 0.00728394 +to 0.00728394
Heightened Def Con from 0.00728394 to 0.00728394
Heightened Def Con from 0.00728394 to 0.00728394
Heightened Def Con from 0.00728394 to 0.00728394
Heightened Def Con from 0.00728394 ++to 0.00728394
Heightened Def Con from 0.00728394 to 0.00728394
Heightened Def Con from 0.00728394 to 0.00728394
Heightened Def Con from 0.00728394 to 0.00728395
Heightened Def Con from 0.00728395 to 0.00728395
Heightened Def Con from 0.00728395 +to 0.00728395
Heightened Def Con from 0.00728395 to 0.00728395
Heightened Def Con from 0.00728395 to 0.00728395
Heightened Def Con from 0.00728395 to 0.00728395
Heightened Def Con from 0.00728395 to 0.00728395
Heightened Def Con from 0.00728395 to 0.00728395
Heightened Def Con from 0.00728395 to 0.00728395
Heightened Def Con from 0.00728395 to 0.00728395
Heightened Def Con from 0.00728395 to 0.00728395
Heightened Def Con from 0.00728395 to 0.00728395
Heightened Def Con from 0.00728395 to 0.00728395
Heightened Def Con from 0.00728395 to 0.00728395
Heightened Def Con from 0.00728395 to 0.00728395
Heightened Def Con from 0.00728395 to 0.00728395
Heightened Def Con from 0.00728395 to 0.00728395
Heightened Def Con from 0.00728395 to 0.00728395
Heightened Def Con from 0.00728395 to 0.00728395
Heightened Def Con from 0.00728395 to 0.00728395
Heightened Def Con from 0.00728395 to 0.00728395
Heightened Def Con from 0.00728395 to 0.00728395
Heightened Def Con from 0.00728395 to 0.00728395
Heightened Def Con from 0.00728395 to 0.00728395
Heightened Def Con from 0.00728395 to 0.00728395
Heightened Def Con from 0.00728395 to 0.00728395
Heightened Def Con from 0.00728395 to 0.00728395
Heightened Def Con from 0.00728395 to 0.00728395
Heightened Def Con from 0.00728395 +to 0.00728395
Heightened Def Con from 0.00728395 to 0.00728395
Heightened Def Con from 0.00728395 to 0.00728395
Heightened Def Con from 0.00728395 to 0.00728395
Heightened Def Con from 0.00728395 to 0.00728395
Heightened Def Con from 0.00728395 to 0.00728395
Heightened Def Con from 0.00728395 +to 0.00728395
Heightened Def Con from 0.00728395 to 0.00728395
Heightened Def Con from 0.00728395 to 0.00728395
Heightened Def Con from 0.00728395 to 0.00728395
Heightened Def Con from 0.00728395 to 0.00728395
Heightened Def Con from 0.00728395 to 0.00728395
Heightened Def Con from 0.00728395 to 0.00728395
Heightened Def Con from 0.00728395 to 0.00728395
Heightened Def Con from 0.00728395 to 0.00728395
Heightened Def Con from 0.00728395 to 0.00728395
Heightened Def Con from 0.00728395 to 0.00728395
Heightened Def Con from 0.00728395 to 0.00728395
Heightened Def Con from 0.00728395 ++to 0.00728395
Heightened Def Con from 0.00728395 to 0.00728395
Heightened Def Con from 0.00728395 to 0.00728395
Heightened Def Con from 0.00728395 to 0.00728395
Heightened Def Con from 0.00728395 +to 0.00728395
Heightened Def Con from 0.00728395 to 0.00728395
Heightened Def Con from 0.00728395 to 0.00728395
Heightened Def Con from 0.00728395 to 0.00728395
Heightened Def Con from 0.00728395 to 0.00728395
Heightened Def Con from 0.00728395 to 0.00728395
Heightened Def Con from 0.00728395 to 0.00728396
Heightened Def Con from 0.00728396 +to 0.00728396
Heightened Def Con from 0.00728396 to 0.00728396
Heightened Def Con from 0.00728396 to 0.00728396
Heightened Def Con from 0.00728396 +to 0.00728396
Heightened Def Con from 0.00728396 to 0.00728396
Heightened Def Con from 0.00728396 to 0.00728396
Heightened Def Con from 0.00728396 to 0.00728396
Heightened Def Con from 0.00728396 +to 0.00728396
Heightened Def Con from 0.00728396 to 0.00728396
Heightened Def Con from 0.00728396 to 0.00728396
Heightened Def Con from 0.00728396 to 0.00728396
Heightened Def Con from 0.00728396 to 0.00728396
Heightened Def Con from 0.00728396 to 0.00728396
Heightened Def Con from 0.00728396 to 0.00728396
Heightened Def Con from 0.00728396 to 0.00728396
Heightened Def Con from 0.00728396 to 0.00728396
Heightened Def Con from 0.00728396 to 0.00728396
Heightened Def Con from 0.00728396 to 0.00728396
Heightened Def Con from 0.00728396 to 0.00728396
Heightened Def Con from 0.00728396 to 0.00728396
Heightened Def Con from 0.00728396 +to 0.00728396
Heightened Def Con from 0.00728396 to 0.00728396
Heightened Def Con from 0.00728396 +to 0.00728396
Heightened Def Con from 0.00728396 to 0.00728396
Heightened Def Con from 0.00728396 to 0.00728396
Heightened Def Con from 0.00728396 to 0.00728396
Heightened Def Con from 0.00728396 to 0.00728396
Heightened Def Con from 0.00728396 to 0.00728396
Heightened Def Con from 0.00728396 +to 0.00728396
Heightened Def Con from 0.00728396 to 0.00728396
Heightened Def Con from 0.00728396 to 0.00728396
Heightened Def Con from 0.00728396 to 0.00728396
Heightened Def Con from 0.00728396 to 0.00728396
Heightened Def Con from 0.00728396 to 0.00728396
Heightened Def Con from 0.00728396 to 0.00728396
Heightened Def Con from 0.00728396 to 0.00728396
Heightened Def Con from 0.00728396 +to 0.00728396
Heightened Def Con from 0.00728396 to 0.00728396
Heightened Def Con from 0.00728396 to 0.00728396
Heightened Def Con from 0.00728396 to 0.00728396
Heightened Def Con from 0.00728396 to 0.00728396
Heightened Def Con from 0.00728396 to 0.00728396
Heightened Def Con from 0.00728396 to 0.00728396
Heightened Def Con from 0.00728396 to 0.00728396
Heightened Def Con from 0.00728396 to 0.00728396
Heightened Def Con from 0.00728396 to 0.00728396
Heightened Def Con from 0.00728396 to 0.00728396
Heightened Def Con from 0.00728396 to 0.00728396
Heightened Def Con from 0.00728396 to 0.00728396
Heightened Def Con from 0.00728396 to 0.00728396
Heightened Def Con from 0.00728396 to 0.00728396
Heightened Def Con from 0.00728396 to 0.00728396
Heightened Def Con from 0.00728396 to 0.00728396
Heightened Def Con from 0.00728396 to 0.00728396
Heightened Def Con from 0.00728396 to 0.00728396
Heightened Def Con from 0.00728396 to 0.00728397
Heightened Def Con from 0.00728397 to 0.00728397
Heightened Def Con from 0.00728397 to 0.00728397
Heightened Def Con from 0.00728397 to 0.00728397
Heightened Def Con from 0.00728397 +to 0.00728397
Heightened Def Con from 0.00728397 to 0.00728397
Heightened Def Con from 0.00728397 to 0.00728397
Heightened Def Con from 0.00728397 to 0.00728397
Heightened Def Con from 0.00728397 to 0.00728397
Heightened Def Con from 0.00728397 to 0.00728397
Heightened Def Con from 0.00728397 to 0.00728397
Heightened Def Con from 0.00728397 to 0.00728397
Heightened Def Con from 0.00728397 to 0.00728397
Heightened Def Con from 0.00728397 to 0.00728397
Heightened Def Con from 0.00728397 to 0.00728397
Heightened Def Con from 0.00728397 to 0.00728397
Heightened Def Con from 0.00728397 to 0.00728397
Heightened Def Con from 0.00728397 to 0.00728397
Heightened Def Con from 0.00728397 to 0.00728397
Heightened Def Con from 0.00728397 to 0.00728397
Heightened Def Con from 0.00728397 to 0.00728397
Heightened Def Con from 0.00728397 to 0.00728397
Heightened Def Con from 0.00728397 +to 0.00728397
Heightened Def Con from 0.00728397 +to 0.00728397
Heightened Def Con from 0.00728397 +to 0.00728397
Heightened Def Con from 0.00728397 to 0.00728397
Heightened Def Con from 0.00728397 to 0.00728397
Heightened Def Con from 0.00728397 to 0.00728397
Heightened Def Con from 0.00728397 to 0.00728397
Heightened Def Con from 0.00728397 to 0.00728397
Heightened Def Con from 0.00728397 to 0.00728397
Heightened Def Con from 0.00728397 to 0.00728397
Heightened Def Con from 0.00728397 to 0.00728397
Heightened Def Con from 0.00728397 to 0.00728397
Heightened Def Con from 0.00728397 to 0.00728397
Heightened Def Con from 0.00728397 to 0.00728397
Heightened Def Con from 0.00728397 to 0.00728397
Heightened Def Con from 0.00728397 to 0.00728397
Heightened Def Con from 0.00728397 to 0.00728397
Heightened Def Con from 0.00728397 to 0.00728397
Heightened Def Con from 0.00728397 to 0.00728397
Heightened Def Con from 0.00728397 to 0.00728397
Heightened Def Con from 0.00728397 to 0.00728397
Heightened Def Con from 0.00728397 to 0.00728397
Heightened Def Con from 0.00728397 to 0.00728397
Heightened Def Con from 0.00728397 to 0.00728397
Heightened Def Con from 0.00728397 to 0.00728397
Heightened Def Con from 0.00728397 to 0.00728397
Heightened Def Con from 0.00728397 to 0.00728397
Heightened Def Con from 0.00728397 +to 0.00728397
Heightened Def Con from 0.00728397 to 0.00728397
Heightened Def Con from 0.00728397 to 0.00728397
Heightened Def Con from 0.00728397 +to 0.00728397
Heightened Def Con from 0.00728397 to 0.00728397
Heightened Def Con from 0.00728397 to 0.00728397
Heightened Def Con from 0.00728397 to 0.00728397
Heightened Def Con from 0.00728397 to 0.00728397
Heightened Def Con from 0.00728397 to 0.00728397
Heightened Def Con from 0.00728397 +to 0.00728397
Heightened Def Con from 0.00728397 to 0.00728397
Heightened Def Con from 0.00728397 to 0.00728397
Heightened Def Con from 0.00728397 +to 0.00728397
Heightened Def Con from 0.00728397 to 0.00728397
Heightened Def Con from 0.00728397 +to 0.00728397
Heightened Def Con from 0.00728397 +to 0.00728398
Heightened Def Con from 0.00728398 to 0.00728398
Heightened Def Con from 0.00728398 to 0.00728398
Heightened Def Con from 0.00728398 to 0.00728398
Heightened Def Con from 0.00728398 to 0.00728398
Heightened Def Con from 0.00728398 +to 0.00728398
Heightened Def Con from 0.00728398 to 0.00728398
Heightened Def Con from 0.00728398 to 0.00728398
Heightened Def Con from 0.00728398 to 0.00728398
Heightened Def Con from 0.00728398 +to 0.00728398
Heightened Def Con from 0.00728398 to 0.00728398
Heightened Def Con from 0.00728398 to 0.00728398
Heightened Def Con from 0.00728398 to 0.00728398
Heightened Def Con from 0.00728398 to 0.00728398
Heightened Def Con from 0.00728398 to 0.00728398
Heightened Def Con from 0.00728398 to 0.00728398
Heightened Def Con from 0.00728398 +to 0.00728398
Heightened Def Con from 0.00728398 to 0.00728398
Heightened Def Con from 0.00728398 to 0.00728398
Heightened Def Con from 0.00728398 to 0.00728398
Heightened Def Con from 0.00728398 to 0.00728398
Heightened Def Con from 0.00728398 to 0.00728398
Heightened Def Con from 0.00728398 to 0.00728398
Heightened Def Con from 0.00728398 to 0.00728398
Heightened Def Con from 0.00728398 to 0.00728398
Heightened Def Con from 0.00728398 to 0.00728398
Heightened Def Con from 0.00728398 to 0.00728398
Heightened Def Con from 0.00728398 to 0.00728398
Heightened Def Con from 0.00728398 to 0.00728398
Heightened Def Con from 0.00728398 to 0.00728398
Heightened Def Con from 0.00728398 +to 0.00728398
Heightened Def Con from 0.00728398 to 0.00728398
Heightened Def Con from 0.00728398 to 0.00728398
Heightened Def Con from 0.00728398 to 0.00728398
Heightened Def Con from 0.00728398 to 0.00728398
Heightened Def Con from 0.00728398 to 0.00728398
Heightened Def Con from 0.00728398 to 0.00728398
Heightened Def Con from 0.00728398 to 0.00728398
Heightened Def Con from 0.00728398 to 0.00728398
Heightened Def Con from 0.00728398 to 0.00728398
Heightened Def Con from 0.00728398 +to 0.00728398
Heightened Def Con from 0.00728398 to 0.00728398
Heightened Def Con from 0.00728398 to 0.00728398
Heightened Def Con from 0.00728398 to 0.00728398
Heightened Def Con from 0.00728398 to 0.00728398
Heightened Def Con from 0.00728398 to 0.00728398
Heightened Def Con from 0.00728398 to 0.00728398
Heightened Def Con from 0.00728398 to 0.00728398
Heightened Def Con from 0.00728398 to 0.00728398
Heightened Def Con from 0.00728398 to 0.00728398
Heightened Def Con from 0.00728398 to 0.00728398
Heightened Def Con from 0.00728398 to 0.00728398
Heightened Def Con from 0.00728398 to 0.00728398
Heightened Def Con from 0.00728398 +to 0.00728399
Heightened Def Con from 0.00728399 to 0.00728399
Heightened Def Con from 0.00728399 to 0.00728399
Heightened Def Con from 0.00728399 +to 0.00728399
Heightened Def Con from 0.00728399 to 0.00728399
Heightened Def Con from 0.00728399 to 0.00728399
Heightened Def Con from 0.00728399 to 0.00728399
Heightened Def Con from 0.00728399 to 0.00728399
Heightened Def Con from 0.00728399 to 0.00728399
Heightened Def Con from 0.00728399 to 0.00728399
Heightened Def Con from 0.00728399 to 0.00728399
Heightened Def Con from 0.00728399 to 0.00728399
Heightened Def Con from 0.00728399 to 0.00728399
Heightened Def Con from 0.00728399 to 0.00728399
Heightened Def Con from 0.00728399 to 0.00728399
Heightened Def Con from 0.00728399 +to 0.00728399
Heightened Def Con from 0.00728399 +++to 0.00728399
Heightened Def Con from 0.00728399 to 0.00728399
Heightened Def Con from 0.00728399 to 0.00728399
Heightened Def Con from 0.00728399 to 0.00728399
Heightened Def Con from 0.00728399 to 0.00728399
Heightened Def Con from 0.00728399 to 0.00728399
Heightened Def Con from 0.00728399 +to 0.00728399
Heightened Def Con from 0.00728399 to 0.00728399
Heightened Def Con from 0.00728399 to 0.00728399
Heightened Def Con from 0.00728399 to 0.00728399
Heightened Def Con from 0.00728399 to 0.00728399
Heightened Def Con from 0.00728399 to 0.00728399
Heightened Def Con from 0.00728399 to 0.00728399
Heightened Def Con from 0.00728399 to 0.00728399
Heightened Def Con from 0.00728399 +to 0.00728399
Heightened Def Con from 0.00728399 to 0.00728399
Heightened Def Con from 0.00728399 to 0.00728399
Heightened Def Con from 0.00728399 to 0.00728399
Heightened Def Con from 0.00728399 to 0.00728399
Heightened Def Con from 0.00728399 to 0.00728399
Heightened Def Con from 0.00728399 to 0.00728399
Heightened Def Con from 0.00728399 to 0.00728399
Heightened Def Con from 0.00728399 to 0.00728399
Heightened Def Con from 0.00728399 to 0.00728399
Heightened Def Con from 0.00728399 ++to 0.00728399
Heightened Def Con from 0.00728399 to 0.00728399
Heightened Def Con from 0.00728399 to 0.00728399
Heightened Def Con from 0.00728399 +to 0.00728399
Heightened Def Con from 0.00728399 to 0.00728399
Heightened Def Con from 0.00728399 to 0.00728399
Heightened Def Con from 0.00728399 to 0.00728399
Heightened Def Con from 0.00728399 +to 0.00728399
Heightened Def Con from 0.00728399 to 0.00728399
Heightened Def Con from 0.00728399 to 0.00728399
Heightened Def Con from 0.00728399 ++to 0.00728399
Heightened Def Con from 0.00728399 to 0.00728399
Heightened Def Con from 0.00728399 to 0.00728399
Heightened Def Con from 0.00728399 to 0.00728399
Heightened Def Con from 0.00728399 to 0.00728399
Heightened Def Con from 0.00728399 to 0.00728399
Heightened Def Con from 0.00728399 to 0.00728399
Heightened Def Con from 0.00728399 to 0.00728399
Heightened Def Con from 0.00728399 to 0.00728399
Heightened Def Con from 0.00728399 to 0.00728399
Heightened Def Con from 0.00728399 to 0.00728399
Heightened Def Con from 0.00728399 to 0.00728399
Heightened Def Con from 0.00728399 to 0.00728399
Heightened Def Con from 0.00728399 to 0.00728399
Heightened Def Con from 0.00728399 to 0.00728399
Heightened Def Con from 0.00728399 to 0.00728399
Heightened Def Con from 0.00728399 to 0.00728399
Heightened Def Con from 0.00728399 +to 0.00728399
Heightened Def Con from 0.00728399 to 0.00728399
Heightened Def Con from 0.00728399 to 0.00728399
Heightened Def Con from 0.00728399 to 0.00728399
Heightened Def Con from 0.00728399 to 0.00728399
Heightened Def Con from 0.00728399 +to 0.00728399
Heightened Def Con from 0.00728399 +to 0.00728399
Heightened Def Con from 0.00728399 to 0.00728399
Heightened Def Con from 0.00728399 to 0.00728399
Heightened Def Con from 0.00728399 to 0.00728399
Heightened Def Con from 0.00728399 to 0.00728399
Heightened Def Con from 0.00728399 to 0.00728399
Heightened Def Con from 0.00728399 to 0.00728399
Heightened Def Con from 0.00728399 to 0.00728399
Heightened Def Con from 0.00728399 to 0.00728399
Heightened Def Con from 0.00728399 to 0.00728399
Heightened Def Con from 0.00728399 to 0.00728399
Heightened Def Con from 0.00728399 to 0.00728399
Heightened Def Con from 0.00728399 to 0.00728399
Heightened Def Con from 0.00728399 to 0.00728399
Heightened Def Con from 0.00728399 to 0.00728399
Heightened Def Con from 0.00728399 to 0.00728399
Heightened Def Con from 0.00728399 to 0.00728399
Heightened Def Con from 0.00728399 to 0.00728399
Heightened Def Con from 0.00728399 to 0.00728399
Heightened Def Con from 0.00728399 to 0.00728399
Heightened Def Con from 0.00728399 to 0.00728399
Heightened Def Con from 0.00728399 to 0.00728399
Heightened Def Con from 0.00728399 to 0.00728399
Heightened Def Con from 0.00728399 to 0.00728399
Heightened Def Con from 0.00728399 +to 0.00728399
Heightened Def Con from 0.00728399 to 0.00728399
Heightened Def Con from 0.00728399 +to 0.00728399
Heightened Def Con from 0.00728399 to 0.00728399
Heightened Def Con from 0.00728399 to 0.00728399
Heightened Def Con from 0.00728399 to 0.00728399
Heightened Def Con from 0.00728399 to 0.00728399
Heightened Def Con from 0.00728399 to 0.00728399
Heightened Def Con from 0.00728399 to 0.00728399
Heightened Def Con from 0.00728399 to 0.00728399
Heightened Def Con from 0.00728399 to 0.00728399
Heightened Def Con from 0.00728399 to 0.00728399
Heightened Def Con from 0.00728399 to 0.00728399
Heightened Def Con from 0.00728399 to 0.00728399
Heightened Def Con from 0.00728399 to 0.00728399
Heightened Def Con from 0.00728399 to 0.00728399
Heightened Def Con from 0.00728399 to 0.00728399
Heightened Def Con from 0.00728399 to 0.00728399
Heightened Def Con from 0.00728399 to 0.00728399
Heightened Def Con from 0.00728399 to 0.007284
Heightened Def Con from 0.007284 to 0.007284
Heightened Def Con from 0.007284 to 0.007284
Heightened Def Con from 0.007284 +to 0.007284
Heightened Def Con from 0.007284 to 0.007284
Heightened Def Con from 0.007284 to 0.007284
Heightened Def Con from 0.007284 to 0.007284
Heightened Def Con from 0.007284 to 0.007284
Heightened Def Con from 0.007284 +to 0.007284
Heightened Def Con from 0.007284 to 0.007284
Heightened Def Con from 0.007284 to 0.007284
Heightened Def Con from 0.007284 to 0.007284
Heightened Def Con from 0.007284 to 0.007284
Heightened Def Con from 0.007284 to 0.007284
Heightened Def Con from 0.007284 to 0.007284
Heightened Def Con from 0.007284 to 0.007284
Heightened Def Con from 0.007284 to 0.007284
Heightened Def Con from 0.007284 to 0.007284
Heightened Def Con from 0.007284 to 0.007284
Heightened Def Con from 0.007284 to 0.007284
Heightened Def Con from 0.007284 to 0.007284
Heightened Def Con from 0.007284 to 0.007284
Heightened Def Con from 0.007284 to 0.007284
Heightened Def Con from 0.007284 +to 0.007284
Heightened Def Con from 0.007284 to 0.007284
Heightened Def Con from 0.007284 ++to 0.007284
Heightened Def Con from 0.007284 to 0.007284
Heightened Def Con from 0.007284 +to 0.007284
Heightened Def Con from 0.007284 +to 0.007284
Heightened Def Con from 0.007284 to 0.007284
Heightened Def Con from 0.007284 to 0.007284
Heightened Def Con from 0.007284 to 0.007284
Heightened Def Con from 0.007284 ++to 0.007284
Heightened Def Con from 0.007284 to 0.007284
Heightened Def Con from 0.007284 to 0.007284
Heightened Def Con from 0.007284 to 0.007284
Heightened Def Con from 0.007284 to 0.007284
Heightened Def Con from 0.007284 to 0.007284
Heightened Def Con from 0.007284 to 0.007284
Heightened Def Con from 0.007284 to 0.007284
Heightened Def Con from 0.007284 +++to 0.007284
Heightened Def Con from 0.007284 to 0.007284
Heightened Def Con from 0.007284 to 0.007284
Heightened Def Con from 0.007284 +to 0.007284
Heightened Def Con from 0.007284 to 0.007284
Heightened Def Con from 0.007284 to 0.007284
Heightened Def Con from 0.007284 to 0.007284
Heightened Def Con from 0.007284 to 0.007284
Heightened Def Con from 0.007284 to 0.007284
Heightened Def Con from 0.007284 to 0.007284
Heightened Def Con from 0.007284 to 0.007284
Heightened Def Con from 0.007284 to 0.007284
Heightened Def Con from 0.007284 to 0.007284
Heightened Def Con from 0.007284 to 0.007284
Heightened Def Con from 0.007284 to 0.007284
Heightened Def Con from 0.007284 to 0.007284
Heightened Def Con from 0.007284 to 0.007284
Heightened Def Con from 0.007284 to 0.007284
Heightened Def Con from 0.007284 to 0.007284
Heightened Def Con from 0.007284 to 0.007284
Heightened Def Con from 0.007284 to 0.007284
Heightened Def Con from 0.007284 to 0.007284
Heightened Def Con from 0.007284 to 0.007284
Heightened Def Con from 0.007284 to 0.007284
Heightened Def Con from 0.007284 to 0.007284
Heightened Def Con from 0.007284 to 0.007284
Heightened Def Con from 0.007284 to 0.007284
Heightened Def Con from 0.007284 to 0.007284
Heightened Def Con from 0.007284 to 0.007284
Heightened Def Con from 0.007284 to 0.007284
Heightened Def Con from 0.007284 +to 0.007284
Heightened Def Con from 0.007284 to 0.007284
Heightened Def Con from 0.007284 to 0.007284
Heightened Def Con from 0.007284 to 0.007284
Heightened Def Con from 0.007284 to 0.007284
Heightened Def Con from 0.007284 to 0.007284
Heightened Def Con from 0.007284 to 0.007284
Heightened Def Con from 0.007284 to 0.007284
Heightened Def Con from 0.007284 to 0.007284
Heightened Def Con from 0.007284 to 0.007284
Heightened Def Con from 0.007284 to 0.007284
Heightened Def Con from 0.007284 to 0.007284
Heightened Def Con from 0.007284 to 0.007284
Heightened Def Con from 0.007284 to 0.007284
Heightened Def Con from 0.007284 to 0.00728401
Heightened Def Con from 0.00728401 to 0.00728401
Heightened Def Con from 0.00728401 +to 0.00728401
Heightened Def Con from 0.00728401 to 0.00728401
Heightened Def Con from 0.00728401 to 0.00728401
Heightened Def Con from 0.00728401 to 0.00728401
Heightened Def Con from 0.00728401 to 0.00728401
Heightened Def Con from 0.00728401 to 0.00728401
Heightened Def Con from 0.00728401 +to 0.00728401
Heightened Def Con from 0.00728401 to 0.00728401
Heightened Def Con from 0.00728401 to 0.00728401
Heightened Def Con from 0.00728401 to 0.00728401
Heightened Def Con from 0.00728401 to 0.00728401
Heightened Def Con from 0.00728401 to 0.00728401
Heightened Def Con from 0.00728401 to 0.00728401
Heightened Def Con from 0.00728401 +to 0.00728401
Heightened Def Con from 0.00728401 +to 0.00728401
Heightened Def Con from 0.00728401 to 0.00728401
Heightened Def Con from 0.00728401 to 0.00728401
Heightened Def Con from 0.00728401 to 0.00728401
Heightened Def Con from 0.00728401 to 0.00728401
Heightened Def Con from 0.00728401 to 0.00728401
Heightened Def Con from 0.00728401 to 0.00728401
Heightened Def Con from 0.00728401 to 0.00728401
Heightened Def Con from 0.00728401 to 0.00728401
Heightened Def Con from 0.00728401 to 0.00728401
Heightened Def Con from 0.00728401 to 0.00728401
Heightened Def Con from 0.00728401 to 0.00728401
Heightened Def Con from 0.00728401 to 0.00728401
Heightened Def Con from 0.00728401 to 0.00728401
Heightened Def Con from 0.00728401 to 0.00728401
Heightened Def Con from 0.00728401 to 0.00728401
Heightened Def Con from 0.00728401 to 0.00728401
Heightened Def Con from 0.00728401 to 0.00728401
Heightened Def Con from 0.00728401 to 0.00728401
Heightened Def Con from 0.00728401 to 0.00728401
Heightened Def Con from 0.00728401 to 0.00728401
Heightened Def Con from 0.00728401 to 0.00728401
Heightened Def Con from 0.00728401 to 0.00728401
Heightened Def Con from 0.00728401 to 0.00728401
Heightened Def Con from 0.00728401 to 0.00728401
Heightened Def Con from 0.00728401 to 0.00728401
Heightened Def Con from 0.00728401 to 0.00728401
Heightened Def Con from 0.00728401 to 0.00728401
Heightened Def Con from 0.00728401 to 0.00728401
Heightened Def Con from 0.00728401 to 0.00728401
Heightened Def Con from 0.00728401 to 0.00728401
Heightened Def Con from 0.00728401 to 0.00728401
Heightened Def Con from 0.00728401 +to 0.00728401
Heightened Def Con from 0.00728401 to 0.00728401
Heightened Def Con from 0.00728401 +to 0.00728401
Heightened Def Con from 0.00728401 to 0.00728401
Heightened Def Con from 0.00728401 to 0.00728401
Heightened Def Con from 0.00728401 to 0.00728401
Heightened Def Con from 0.00728401 to 0.00728401
Heightened Def Con from 0.00728401 to 0.00728401
Heightened Def Con from 0.00728401 to 0.00728401
Heightened Def Con from 0.00728401 to 0.00728401
Heightened Def Con from 0.00728401 to 0.00728401
Heightened Def Con from 0.00728401 to 0.00728401
Heightened Def Con from 0.00728401 to 0.00728402
Heightened Def Con from 0.00728402 to 0.00728402
Heightened Def Con from 0.00728402 to 0.00728402
Heightened Def Con from 0.00728402 to 0.00728402
Heightened Def Con from 0.00728402 to 0.00728402
Heightened Def Con from 0.00728402 to 0.00728402
Heightened Def Con from 0.00728402 to 0.00728402
Heightened Def Con from 0.00728402 +to 0.00728402
Heightened Def Con from 0.00728402 to 0.00728402
Heightened Def Con from 0.00728402 to 0.00728402
Heightened Def Con from 0.00728402 to 0.00728402
Heightened Def Con from 0.00728402 to 0.00728402
Heightened Def Con from 0.00728402 to 0.00728402
Heightened Def Con from 0.00728402 to 0.00728402
Heightened Def Con from 0.00728402 to 0.00728402
Heightened Def Con from 0.00728402 to 0.00728402
Heightened Def Con from 0.00728402 to 0.00728402
Heightened Def Con from 0.00728402 to 0.00728402
Heightened Def Con from 0.00728402 to 0.00728402
Heightened Def Con from 0.00728402 +to 0.00728402
Heightened Def Con from 0.00728402 to 0.00728402
Heightened Def Con from 0.00728402 to 0.00728402
Heightened Def Con from 0.00728402 to 0.00728402
Heightened Def Con from 0.00728402 to 0.00728402
Heightened Def Con from 0.00728402 +to 0.00728402
Heightened Def Con from 0.00728402 to 0.00728402
Heightened Def Con from 0.00728402 to 0.00728402
Heightened Def Con from 0.00728402 to 0.00728402
Heightened Def Con from 0.00728402 to 0.00728402
Heightened Def Con from 0.00728402 to 0.00728402
Heightened Def Con from 0.00728402 to 0.00728402
Heightened Def Con from 0.00728402 to 0.00728402
Heightened Def Con from 0.00728402 to 0.00728402
Heightened Def Con from 0.00728402 to 0.00728402
Heightened Def Con from 0.00728402 to 0.00728402
Heightened Def Con from 0.00728402 +to 0.00728402
Heightened Def Con from 0.00728402 to 0.00728402
Heightened Def Con from 0.00728402 to 0.00728402
Heightened Def Con from 0.00728402 to 0.00728402
Heightened Def Con from 0.00728402 to 0.00728402
Heightened Def Con from 0.00728402 to 0.00728402
Heightened Def Con from 0.00728402 to 0.00728402
Heightened Def Con from 0.00728402 to 0.00728402
Heightened Def Con from 0.00728402 +to 0.00728402
Heightened Def Con from 0.00728402 to 0.00728402
Heightened Def Con from 0.00728402 to 0.00728402
Heightened Def Con from 0.00728402 to 0.00728402
Heightened Def Con from 0.00728402 to 0.00728402
Heightened Def Con from 0.00728402 to 0.00728402
Heightened Def Con from 0.00728402 to 0.00728402
Heightened Def Con from 0.00728402 to 0.00728402
Heightened Def Con from 0.00728402 to 0.00728402
Heightened Def Con from 0.00728402 to 0.00728402
Heightened Def Con from 0.00728402 to 0.00728402
Heightened Def Con from 0.00728402 to 0.00728402
Heightened Def Con from 0.00728402 to 0.00728402
Heightened Def Con from 0.00728402 to 0.00728402
Heightened Def Con from 0.00728402 to 0.00728402
Heightened Def Con from 0.00728402 +to 0.00728402
Heightened Def Con from 0.00728402 to 0.00728402
Heightened Def Con from 0.00728402 to 0.00728402
Heightened Def Con from 0.00728402 to 0.00728402
Heightened Def Con from 0.00728402 to 0.00728402
Heightened Def Con from 0.00728402 to 0.00728402
Heightened Def Con from 0.00728402 to 0.00728402
Heightened Def Con from 0.00728402 to 0.00728402
Heightened Def Con from 0.00728402 to 0.00728402
Heightened Def Con from 0.00728402 to 0.00728402
Heightened Def Con from 0.00728402 to 0.00728402
Heightened Def Con from 0.00728402 to 0.00728402
Heightened Def Con from 0.00728402 to 0.00728402
Heightened Def Con from 0.00728402 to 0.00728402
Heightened Def Con from 0.00728402 to 0.00728402
Heightened Def Con from 0.00728402 to 0.00728402
Heightened Def Con from 0.00728402 to 0.00728402
Heightened Def Con from 0.00728402 to 0.00728402
Heightened Def Con from 0.00728402 to 0.00728402
Heightened Def Con from 0.00728402 to 0.00728402
Heightened Def Con from 0.00728402 to 0.00728402
Heightened Def Con from 0.00728402 to 0.00728402
Heightened Def Con from 0.00728402 to 0.00728402
Heightened Def Con from 0.00728402 to 0.00728402
Heightened Def Con from 0.00728402 to 0.00728402
Heightened Def Con from 0.00728402 +to 0.00728402
Heightened Def Con from 0.00728402 to 0.00728402
Heightened Def Con from 0.00728402 to 0.00728402
Heightened Def Con from 0.00728402 to 0.00728402
Heightened Def Con from 0.00728402 +to 0.00728402
Heightened Def Con from 0.00728402 to 0.00728402
Heightened Def Con from 0.00728402 ++to 0.00728402
Heightened Def Con from 0.00728402 to 0.00728402
Heightened Def Con from 0.00728402 to 0.00728402
Heightened Def Con from 0.00728402 to 0.00728402
Heightened Def Con from 0.00728402 to 0.00728402
Heightened Def Con from 0.00728402 to 0.00728402
Heightened Def Con from 0.00728402 +to 0.00728402
Heightened Def Con from 0.00728402 to 0.00728402
Heightened Def Con from 0.00728402 to 0.00728402
Heightened Def Con from 0.00728402 to 0.00728402
Heightened Def Con from 0.00728402 to 0.00728402
Heightened Def Con from 0.00728402 to 0.00728402
Heightened Def Con from 0.00728402 to 0.00728402
Heightened Def Con from 0.00728402 to 0.00728402
Heightened Def Con from 0.00728402 to 0.00728402
Heightened Def Con from 0.00728402 to 0.00728402
Heightened Def Con from 0.00728402 to 0.00728402
Heightened Def Con from 0.00728402 to 0.00728402
Heightened Def Con from 0.00728402 to 0.00728402
Heightened Def Con from 0.00728402 to 0.00728402
Heightened Def Con from 0.00728402 to 0.00728402
Heightened Def Con from 0.00728402 to 0.00728402
Heightened Def Con from 0.00728402 +to 0.00728402
Heightened Def Con from 0.00728402 to 0.00728402
Heightened Def Con from 0.00728402 to 0.00728402
Heightened Def Con from 0.00728402 to 0.00728402
Heightened Def Con from 0.00728402 to 0.00728402
Heightened Def Con from 0.00728402 to 0.00728402
Heightened Def Con from 0.00728402 to 0.00728402
Heightened Def Con from 0.00728402 to 0.00728402
Heightened Def Con from 0.00728402 +to 0.00728402
Heightened Def Con from 0.00728402 to 0.00728402
Heightened Def Con from 0.00728402 +to 0.00728403
Heightened Def Con from 0.00728403 to 0.00728403
Heightened Def Con from 0.00728403 to 0.00728403
Heightened Def Con from 0.00728403 to 0.00728403
Heightened Def Con from 0.00728403 to 0.00728403
Heightened Def Con from 0.00728403 to 0.00728403
Heightened Def Con from 0.00728403 +++to 0.00728403
Heightened Def Con from 0.00728403 to 0.00728403
Heightened Def Con from 0.00728403 to 0.00728403
Heightened Def Con from 0.00728403 to 0.00728403
Heightened Def Con from 0.00728403 to 0.00728403
Heightened Def Con from 0.00728403 to 0.00728403
Heightened Def Con from 0.00728403 to 0.00728403
Heightened Def Con from 0.00728403 to 0.00728403
[...]
Heightened Def Con from 0.00728548 to 0.00728548
Heightened Def Con from 0.00728548 to 0.00728548
Heightened Def Con from 0.00728548 to 0.00728548
Heightened Def Con from 0.00728548 to 0.00728548
Heightened Def Con from 0.00728548 to 0.00728548
Heightened Def Con from 0.00728548 to 0.00728548
Heightened Def Con from 0.00728548 to 0.00728548
Heightened Def Con from 0.00728548 +to 0.00728548
Heightened Def Con from 0.00728548 to 0.00728548
Heightened Def Con from 0.00728548 to 0.00728548
Heightened Def Con from 0.00728548 to 0.00728548
Heightened Def Con from 0.00728548 to 0.00728548
Heightened Def Con from 0.00728548 to 0.00728548
Heightened Def Con from 0.00728548 to 0.00728548
Heightened Def Con from 0.00728548 to 0.00728548
Heightened Def Con from 0.00728548 to 0.00728548
Heightened Def Con from 0.00728548 to 0.00728548
Heightened Def Con from 0.00728548 to 0.00728548
Heightened Def Con from 0.00728548 to 0.00728548
Heightened Def Con from 0.00728548 to 0.00728548
Heightened Def Con from 0.00728548 to 0.00728548
Heightened Def Con from 0.00728548 to 0.00728548
Heightened Def Con from 0.00728548 to 0.00728548
Heightened Def Con from 0.00728548 to 0.00728548
Heightened Def Con from 0.00728548 to 0.00728548
Heightened Def Con from 0.00728548 to 0.00728548
Heightened Def Con from 0.00728548 to 0.00728548
Heightened Def Con from 0.00728548 to 0.00728548
Heightened Def Con from 0.00728548 to 0.00728548
Heightened Def Con from 0.00728548 to 0.00728548
Heightened Def Con from 0.00728548 to 0.00728548
Heightened Def Con from 0.00728548 +to 0.00728548
Heightened Def Con from 0.00728548 to 0.00728548
Heightened Def Con from 0.00728548 to 0.00728548
Heightened Def Con from 0.00728548 to 0.00728548
Heightened Def Con from 0.00728548 +to 0.00728548
Heightened Def Con from 0.00728548 +to 0.00728548
Heightened Def Con from 0.00728548 to 0.00728548
Heightened Def Con from 0.00728548 to 0.00728548
Heightened Def Con from 0.00728548 to 0.00728548
Heightened Def Con from 0.00728548 to 0.00728548
Heightened Def Con from 0.00728548 to 0.00728548
Heightened Def Con from 0.00728548 to 0.00728549
Heightened Def Con from 0.00728549 +++to 0.00728549
Heightened Def Con from 0.00728549 to 0.00728549
Heightened Def Con from 0.00728549 to 0.00728549
Heightened Def Con from 0.00728549 to 0.00728549
Heightened Def Con from 0.00728549 +to 0.00728549
Heightened Def Con from 0.00728549 to 0.00728549
Heightened Def Con from 0.00728549 to 0.00728549
Heightened Def Con from 0.00728549 to 0.00728549
Heightened Def Con from 0.00728549 to 0.00728549
Heightened Def Con from 0.00728549 to 0.00728549
Heightened Def Con from 0.00728549 to 0.00728549
Heightened Def Con from 0.00728549 to 0.00728549
Heightened Def Con from 0.00728549 +to 0.00728549
Heightened Def Con from 0.00728549 +to 0.00728549
Heightened Def Con from 0.00728549 to 0.00728549
Heightened Def Con from 0.00728549 to 0.00728549
Heightened Def Con from 0.00728549 to 0.00728549
Heightened Def Con from 0.00728549 to 0.00728549
Heightened Def Con from 0.00728549 to 0.00728549
Heightened Def Con from 0.00728549 to 0.00728549
Heightened Def Con from 0.00728549 to 0.00728549
Heightened Def Con from 0.00728549 to 0.00728549
Heightened Def Con from 0.00728549 to 0.00728549
Heightened Def Con from 0.00728549 to 0.00728549
Heightened Def Con from 0.00728549 to 0.00728549
Heightened Def Con from 0.00728549 to 0.00728549
Heightened Def Con from 0.00728549 to 0.00728549
Heightened Def Con from 0.00728549 to 0.00728549
Heightened Def Con from 0.00728549 to 0.00728549
Heightened Def Con from 0.00728549 to 0.00728549
Heightened Def Con from 0.00728549 to 0.00728549
Heightened Def Con from 0.00728549 to 0.00728549
Heightened Def Con from 0.00728549 to 0.00728549
Heightened Def Con from 0.00728549 to 0.00728549
Heightened Def Con from 0.00728549 to 0.00728549
Heightened Def Con from 0.00728549 to 0.00728549
Heightened Def Con from 0.00728549 ++to 0.00728549
Heightened Def Con from 0.00728549 to 0.00728549
Heightened Def Con from 0.00728549 to 0.00728549
Heightened Def Con from 0.00728549 to 0.00728549
Heightened Def Con from 0.00728549 to 0.00728549
Heightened Def Con from 0.00728549 to 0.00728549
Heightened Def Con from 0.00728549 to 0.00728549
Heightened Def Con from 0.00728549 to 0.00728549
Heightened Def Con from 0.00728549 to 0.00728549
Heightened Def Con from 0.00728549 to 0.00728549
Heightened Def Con from 0.00728549 to 0.00728549
Heightened Def Con from 0.00728549 +to 0.00728549
Heightened Def Con from 0.00728549 to 0.00728549
Heightened Def Con from 0.00728549 to 0.00728549
Heightened Def Con from 0.00728549 to 0.00728549
Heightened Def Con from 0.00728549 to 0.00728549
Heightened Def Con from 0.00728549 to 0.00728549
Heightened Def Con from 0.00728549 to 0.00728549
Heightened Def Con from 0.00728549 to 0.00728549
Heightened Def Con from 0.00728549 +to 0.00728549
Heightened Def Con from 0.00728549 to 0.00728549
Heightened Def Con from 0.00728549 to 0.00728549
Heightened Def Con from 0.00728549 to 0.00728549
Heightened Def Con from 0.00728549 to 0.00728549
Heightened Def Con from 0.00728549 to 0.00728549
Heightened Def Con from 0.00728549 to 0.00728549
Heightened Def Con from 0.00728549 to 0.00728549
Heightened Def Con from 0.00728549 to 0.00728549
Heightened Def Con from 0.00728549 to 0.00728549
Heightened Def Con from 0.00728549 to 0.00728549
Heightened Def Con from 0.00728549 to 0.00728549
Heightened Def Con from 0.00728549 to 0.00728549
Heightened Def Con from 0.00728549 to 0.00728549
Heightened Def Con from 0.00728549 to 0.00728549
Heightened Def Con from 0.00728549 to 0.00728549
Heightened Def Con from 0.00728549 to 0.00728549
Heightened Def Con from 0.00728549 +to 0.00728549
Heightened Def Con from 0.00728549 to 0.00728549
Heightened Def Con from 0.00728549 to 0.00728549
Heightened Def Con from 0.00728549 to 0.00728549
Heightened Def Con from 0.00728549 to 0.00728549
Heightened Def Con from 0.00728549 to 0.00728549
Heightened Def Con from 0.00728549 to 0.00728549
Heightened Def Con from 0.00728549 to 0.00728549
Heightened Def Con from 0.00728549 to 0.00728549
Heightened Def Con from 0.00728549 to 0.0072855
Heightened Def Con from 0.0072855 to 0.0072855
Heightened Def Con from 0.0072855 to 0.0072855
Heightened Def Con from 0.0072855 to 0.0072855
Heightened Def Con from 0.0072855 to 0.0072855
Heightened Def Con from 0.0072855 to 0.0072855
Heightened Def Con from 0.0072855 to 0.0072855
Heightened Def Con from 0.0072855 to 0.0072855
Heightened Def Con from 0.0072855 to 0.0072855
Heightened Def Con from 0.0072855 +to 0.0072855
Heightened Def Con from 0.0072855 to 0.0072855
Heightened Def Con from 0.0072855 to 0.0072855
Heightened Def Con from 0.0072855 to 0.0072855
Heightened Def Con from 0.0072855 to 0.0072855
Heightened Def Con from 0.0072855 to 0.0072855
Heightened Def Con from 0.0072855 to 0.0072855
Heightened Def Con from 0.0072855 to 0.0072855
Heightened Def Con from 0.0072855 to 0.0072855
Heightened Def Con from 0.0072855 to 0.0072855
Heightened Def Con from 0.0072855 to 0.0072855
Heightened Def Con from 0.0072855 to 0.0072855
Heightened Def Con from 0.0072855 to 0.0072855
Heightened Def Con from 0.0072855 +to 0.0072855
Heightened Def Con from 0.0072855 to 0.0072855
Heightened Def Con from 0.0072855 to 0.0072855
Heightened Def Con from 0.0072855 ++to 0.0072855
Heightened Def Con from 0.0072855 to 0.0072855
Heightened Def Con from 0.0072855 to 0.0072855
Heightened Def Con from 0.0072855 to 0.0072855
Heightened Def Con from 0.0072855 to 0.0072855
Heightened Def Con from 0.0072855 to 0.0072855
Heightened Def Con from 0.0072855 to 0.0072855
Heightened Def Con from 0.0072855 to 0.0072855
Heightened Def Con from 0.0072855 to 0.0072855
Heightened Def Con from 0.0072855 to 0.0072855
Heightened Def Con from 0.0072855 to 0.0072855
Heightened Def Con from 0.0072855 to 0.0072855
Heightened Def Con from 0.0072855 to 0.0072855
Heightened Def Con from 0.0072855 +to 0.0072855
Heightened Def Con from 0.0072855 to 0.0072855
Heightened Def Con from 0.0072855 to 0.0072855
Heightened Def Con from 0.0072855 to 0.0072855
Heightened Def Con from 0.0072855 to 0.0072855
Heightened Def Con from 0.0072855 to 0.0072855
Heightened Def Con from 0.0072855 to 0.0072855
Heightened Def Con from 0.0072855 to 0.0072855
Heightened Def Con from 0.0072855 to 0.0072855
Heightened Def Con from 0.0072855 to 0.0072855
Heightened Def Con from 0.0072855 to 0.0072855
Heightened Def Con from 0.0072855 to 0.0072855
Heightened Def Con from 0.0072855 to 0.0072855
Heightened Def Con from 0.0072855 to 0.0072855
Heightened Def Con from 0.0072855 to 0.0072855
Heightened Def Con from 0.0072855 to 0.0072855
Heightened Def Con from 0.0072855 to 0.0072855
Heightened Def Con from 0.0072855 to 0.0072855
Heightened Def Con from 0.0072855 to 0.0072855
Heightened Def Con from 0.0072855 to 0.0072855
Heightened Def Con from 0.0072855 to 0.0072855
Heightened Def Con from 0.0072855 +to 0.0072855
Heightened Def Con from 0.0072855 to 0.0072855
Heightened Def Con from 0.0072855 to 0.0072855
Heightened Def Con from 0.0072855 to 0.0072855
Heightened Def Con from 0.0072855 to 0.0072855
Heightened Def Con from 0.0072855 +to 0.0072855
Heightened Def Con from 0.0072855 to 0.0072855
Heightened Def Con from 0.0072855 to 0.0072855
Heightened Def Con from 0.0072855 to 0.0072855
Heightened Def Con from 0.0072855 to 0.0072855
Heightened Def Con from 0.0072855 to 0.0072855
Heightened Def Con from 0.0072855 to 0.0072855
Heightened Def Con from 0.0072855 to 0.00728551
Heightened Def Con from 0.00728551 to 0.00728551
Heightened Def Con from 0.00728551 +to 0.00728551
Heightened Def Con from 0.00728551 to 0.00728551
Heightened Def Con from 0.00728551 to 0.00728551
Heightened Def Con from 0.00728551 +to 0.00728551
Heightened Def Con from 0.00728551 to 0.00728551
Heightened Def Con from 0.00728551 to 0.00728551
Heightened Def Con from 0.00728551 ++to 0.00728551
Heightened Def Con from 0.00728551 to 0.00728551
Heightened Def Con from 0.00728551 +to 0.00728551
Heightened Def Con from 0.00728551 to 0.00728551
Heightened Def Con from 0.00728551 to 0.00728551
Heightened Def Con from 0.00728551 to 0.00728551
Heightened Def Con from 0.00728551 +to 0.00728551
Heightened Def Con from 0.00728551 to 0.00728551
Heightened Def Con from 0.00728551 to 0.00728551
Heightened Def Con from 0.00728551 to 0.00728551
Heightened Def Con from 0.00728551 to 0.00728551
Heightened Def Con from 0.00728551 to 0.00728551
Heightened Def Con from 0.00728551 to 0.00728551
Heightened Def Con from 0.00728551 to 0.00728551
Heightened Def Con from 0.00728551 to 0.00728551
Heightened Def Con from 0.00728551 to 0.00728551
Heightened Def Con from 0.00728551 to 0.00728551
Heightened Def Con from 0.00728551 to 0.00728551
Heightened Def Con from 0.00728551 to 0.00728551
Heightened Def Con from 0.00728551 +to 0.00728551
Heightened Def Con from 0.00728551 to 0.00728551
Heightened Def Con from 0.00728551 to 0.00728551
Heightened Def Con from 0.00728551 to 0.00728551
Heightened Def Con from 0.00728551 to 0.00728551
Heightened Def Con from 0.00728551 to 0.00728551
Heightened Def Con from 0.00728551 to 0.00728551
Heightened Def Con from 0.00728551 to 0.00728551
Heightened Def Con from 0.00728551 to 0.00728551
Heightened Def Con from 0.00728551 to 0.00728551
Heightened Def Con from 0.00728551 to 0.00728551
Heightened Def Con from 0.00728551 to 0.00728551
Heightened Def Con from 0.00728551 +to 0.00728551
Heightened Def Con from 0.00728551 to 0.00728551
Heightened Def Con from 0.00728551 to 0.00728551
Heightened Def Con from 0.00728551 to 0.00728551
Heightened Def Con from 0.00728551 to 0.00728551
Heightened Def Con from 0.00728551 to 0.00728551
Heightened Def Con from 0.00728551 to 0.00728551
Heightened Def Con from 0.00728551 +to 0.00728551
Heightened Def Con from 0.00728551 to 0.00728551
Heightened Def Con from 0.00728551 to 0.00728551
Heightened Def Con from 0.00728551 to 0.00728551
Heightened Def Con from 0.00728551 to 0.00728551
Heightened Def Con from 0.00728551 to 0.00728551
Heightened Def Con from 0.00728551 to 0.00728551
Heightened Def Con from 0.00728551 to 0.00728551
Heightened Def Con from 0.00728551 to 0.00728551
Heightened Def Con from 0.00728551 to 0.00728551
Heightened Def Con from 0.00728551 to 0.00728551
Heightened Def Con from 0.00728551 +to 0.00728551
Heightened Def Con from 0.00728551 +to 0.00728551
Heightened Def Con from 0.00728551 to 0.00728551
Heightened Def Con from 0.00728551 to 0.00728551
Heightened Def Con from 0.00728551 to 0.00728551
Heightened Def Con from 0.00728551 to 0.00728551
Heightened Def Con from 0.00728551 to 0.00728551
Heightened Def Con from 0.00728551 to 0.00728551
Heightened Def Con from 0.00728551 to 0.00728551
Heightened Def Con from 0.00728551 ++++to 0.00728551
Heightened Def Con from 0.00728551 to 0.00728551
Heightened Def Con from 0.00728551 to 0.00728551
Heightened Def Con from 0.00728551 to 0.00728551
Heightened Def Con from 0.00728551 to 0.00728551
Heightened Def Con from 0.00728551 to 0.00728551
Heightened Def Con from 0.00728551 +to 0.00728551
Heightened Def Con from 0.00728551 to 0.00728551
Heightened Def Con from 0.00728551 to 0.00728551
Heightened Def Con from 0.00728551 to 0.00728551
Heightened Def Con from 0.00728551 to 0.00728551
Heightened Def Con from 0.00728551 to 0.00728551
Heightened Def Con from 0.00728551 to 0.00728551
Heightened Def Con from 0.00728551 +to 0.00728551
Heightened Def Con from 0.00728551 to 0.00728551
Heightened Def Con from 0.00728551 to 0.00728551
Heightened Def Con from 0.00728551 to 0.00728551
Heightened Def Con from 0.00728551 to 0.00728551
Heightened Def Con from 0.00728551 to 0.00728551
Heightened Def Con from 0.00728551 to 0.00728551
Heightened Def Con from 0.00728551 to 0.00728551
Heightened Def Con from 0.00728551 to 0.00728551
Heightened Def Con from 0.00728551 +to 0.00728551
Heightened Def Con from 0.00728551 to 0.00728551
Heightened Def Con from 0.00728551 to 0.00728551
Heightened Def Con from 0.00728551 to 0.00728551
Heightened Def Con from 0.00728551 to 0.00728551
Heightened Def Con from 0.00728551 to 0.00728551
Heightened Def Con from 0.00728551 to 0.00728551
Heightened Def Con from 0.00728551 to 0.00728551
Heightened Def Con from 0.00728551 to 0.00728551
Heightened Def Con from 0.00728551 to 0.00728551
Heightened Def Con from 0.00728551 to 0.00728551
Heightened Def Con from 0.00728551 +to 0.00728551
Heightened Def Con from 0.00728551 to 0.00728551
Heightened Def Con from 0.00728551 to 0.00728551
Heightened Def Con from 0.00728551 to 0.00728551
Heightened Def Con from 0.00728551 to 0.00728551
Heightened Def Con from 0.00728551 to 0.00728551
Heightened Def Con from 0.00728551 to 0.00728551
Heightened Def Con from 0.00728551 +to 0.00728551
Heightened Def Con from 0.00728551 to 0.00728551
Heightened Def Con from 0.00728551 to 0.00728551
Heightened Def Con from 0.00728551 to 0.00728551
Heightened Def Con from 0.00728551 to 0.00728551
Heightened Def Con from 0.00728551 to 0.00728551
Heightened Def Con from 0.00728551 +to 0.00728552
Heightened Def Con from 0.00728552 to 0.00728552
Heightened Def Con from 0.00728552 to 0.00728552
Heightened Def Con from 0.00728552 to 0.00728552
Heightened Def Con from 0.00728552 +to 0.00728552
Heightened Def Con from 0.00728552 to 0.00728552
Heightened Def Con from 0.00728552 to 0.00728552
Heightened Def Con from 0.00728552 +to 0.00728552
Heightened Def Con from 0.00728552 to 0.00728552
Heightened Def Con from 0.00728552 +to 0.00728552
Heightened Def Con from 0.00728552 to 0.00728552
Heightened Def Con from 0.00728552 to 0.00728552
Heightened Def Con from 0.00728552 to 0.00728552
Heightened Def Con from 0.00728552 to 0.00728552
Heightened Def Con from 0.00728552 to 0.00728552
Heightened Def Con from 0.00728552 to 0.00728552
Heightened Def Con from 0.00728552 to 0.00728552
Heightened Def Con from 0.00728552 to 0.00728552
Heightened Def Con from 0.00728552 to 0.00728552
Heightened Def Con from 0.00728552 to 0.00728552
Heightened Def Con from 0.00728552 to 0.00728552
Heightened Def Con from 0.00728552 to 0.00728552
Heightened Def Con from 0.00728552 to 0.00728552
Heightened Def Con from 0.00728552 to 0.00728552
Heightened Def Con from 0.00728552 to 0.00728552
Heightened Def Con from 0.00728552 to 0.00728552
Heightened Def Con from 0.00728552 to 0.00728552
Heightened Def Con from 0.00728552 to 0.00728552
Heightened Def Con from 0.00728552 to 0.00728552
Heightened Def Con from 0.00728552 to 0.00728552
Heightened Def Con from 0.00728552 +to 0.00728552
Heightened Def Con from 0.00728552 to 0.00728552
Heightened Def Con from 0.00728552 to 0.00728552
Heightened Def Con from 0.00728552 to 0.00728552
Heightened Def Con from 0.00728552 +to 0.00728552
Heightened Def Con from 0.00728552 to 0.00728552
Heightened Def Con from 0.00728552 to 0.00728552
Heightened Def Con from 0.00728552 to 0.00728552
Heightened Def Con from 0.00728552 to 0.00728552
Heightened Def Con from 0.00728552 to 0.00728552
Heightened Def Con from 0.00728552 to 0.00728552
Heightened Def Con from 0.00728552 to 0.00728552
Heightened Def Con from 0.00728552 to 0.00728552
Heightened Def Con from 0.00728552 +++to 0.00728552
Heightened Def Con from 0.00728552 to 0.00728552
Heightened Def Con from 0.00728552 to 0.00728552
Heightened Def Con from 0.00728552 to 0.00728552
Heightened Def Con from 0.00728552 to 0.00728552
Heightened Def Con from 0.00728552 to 0.00728552
Heightened Def Con from 0.00728552 to 0.00728552
Heightened Def Con from 0.00728552 to 0.00728552
Heightened Def Con from 0.00728552 to 0.00728552
Heightened Def Con from 0.00728552 to 0.00728552
Heightened Def Con from 0.00728552 to 0.00728552
Heightened Def Con from 0.00728552 to 0.00728552
Heightened Def Con from 0.00728552 to 0.00728552
Heightened Def Con from 0.00728552 to 0.00728552
Heightened Def Con from 0.00728552 to 0.00728552
Heightened Def Con from 0.00728552 ++to 0.00728552
Heightened Def Con from 0.00728552 to 0.00728552
Heightened Def Con from 0.00728552 to 0.00728552
Heightened Def Con from 0.00728552 to 0.00728552
Heightened Def Con from 0.00728552 to 0.00728552
Heightened Def Con from 0.00728552 +to 0.00728552
Heightened Def Con from 0.00728552 to 0.00728552
Heightened Def Con from 0.00728552 to 0.00728552
Heightened Def Con from 0.00728552 to 0.00728552
Heightened Def Con from 0.00728552 to 0.00728552
Heightened Def Con from 0.00728552 to 0.00728552
Heightened Def Con from 0.00728552 to 0.00728552
Heightened Def Con from 0.00728552 to 0.00728552
Heightened Def Con from 0.00728552 to 0.00728552
Heightened Def Con from 0.00728552 to 0.00728552
Heightened Def Con from 0.00728552 to 0.00728552
Heightened Def Con from 0.00728552 to 0.00728552
Heightened Def Con from 0.00728552 to 0.00728552
Heightened Def Con from 0.00728552 to 0.00728552
Heightened Def Con from 0.00728552 to 0.00728552
Heightened Def Con from 0.00728552 to 0.00728552
Heightened Def Con from 0.00728552 +to 0.00728552
Heightened Def Con from 0.00728552 to 0.00728552
Heightened Def Con from 0.00728552 +to 0.00728552
Heightened Def Con from 0.00728552 to 0.00728552
Heightened Def Con from 0.00728552 to 0.00728552
Heightened Def Con from 0.00728552 to 0.00728552
Heightened Def Con from 0.00728552 to 0.00728552
Heightened Def Con from 0.00728552 to 0.00728552
Heightened Def Con from 0.00728552 to 0.00728552
Heightened Def Con from 0.00728552 to 0.00728552
Heightened Def Con from 0.00728552 to 0.00728552
Heightened Def Con from 0.00728552 to 0.00728552
Heightened Def Con from 0.00728552 to 0.00728552
Heightened Def Con from 0.00728552 to 0.00728552
Heightened Def Con from 0.00728552 to 0.00728552
Heightened Def Con from 0.00728552 to 0.00728552
Heightened Def Con from 0.00728552 +to 0.00728552
Heightened Def Con from 0.00728552 to 0.00728552
Heightened Def Con from 0.00728552 to 0.00728552
Heightened Def Con from 0.00728552 to 0.00728552
Heightened Def Con from 0.00728552 to 0.00728552
Heightened Def Con from 0.00728552 to 0.00728553
Heightened Def Con from 0.00728553 to 0.00728553
Heightened Def Con from 0.00728553 