Circuit: * D:\workspace\sim\igbt.asc

.dc sweep increment has wrong sign -- fixing...

Date: Wed Apr 22 21:26:41 2015
Total elapsed time: 2.415 seconds.

tnom = 27
temp = 27
method = trap
totiter = 933
traniter = 0
tranpoints = 0
accept = 0
rejected = 0
matrix size = 86
fillins = 170
solver = Normal
Thread vector: 67.8/54.7[3] 0.0/0.0[0] 4.2/3.6[3] 0.5/1.4[1]  2592/500
Matrix Compiler1: 14.3 KB object code size  3.5/1.8/[1.3]
Matrix Compiler2: 9.20 KB object code size  0.9/1.2/[0.8]


