Circuit: * D:\workspace\sim\latch_nand.asc

Direct Newton iteration for .op point succeeded.

Date: Mon Apr 20 01:06:27 2015
Total elapsed time: 0.124 seconds.

tnom = 27
temp = 27
method = modified trap
totiter = 5095
traniter = 5069
tranpoints = 2396
accept = 2161
rejected = 235
matrix size = 13
fillins = 2
solver = Normal
Matrix Compiler1: 1004 bytes object code size  0.5/0.3/[0.1]
Matrix Compiler2: off  [0.2]/0.4/0.7


