Circuit: * C:\Users\cuki\Eletronica\Sim\medidor capacitivo2.asc

Direct Newton iteration for .op point succeeded.

Date: Mon Dec 03 09:38:15 2012
Total elapsed time: 0.050 seconds.

tnom = 27
temp = 27
method = modified trap
totiter = 2557
traniter = 2553
tranpoints = 1187
accept = 1107
rejected = 80
matrix size = 17
fillins = 7
solver = Normal
Matrix Compiler1: 1,16 KB object code size  0.7/0.3/[0.1]
Matrix Compiler2: off  [0.3]/0.4/0.4


