Circuit: * D:\Sim\medidor capacitivo.asc

Direct Newton iteration for .op point succeeded.

Date: Fri Sep 05 16:50:50 2014
Total elapsed time: 0.612 seconds.

tnom = 27
temp = 27
method = modified trap
totiter = 137017
traniter = 136996
tranpoints = 49152
accept = 32096
rejected = 17056
matrix size = 9
fillins = 1
solver = Normal
Matrix Compiler1: 368 bytes object code size  0.4/0.1/[0.1]
Matrix Compiler2: off  [0.2]/0.3/0.4


