Missing ".ends" statement in file "D:\Sim\lib\15n60.lib"
Circuit: * D:\Sim\meia ponte h.asc

Expanding empty subcircuit: ngtb15n60s1e
WARNING: Less than two connections to node N003.  This node is used by R1.
WARNING: Less than two connections to node N002.  This node is used by V2.
Direct Newton iteration for .op point succeeded.

Date: Sun Apr 19 22:11:52 2015
Total elapsed time: 0.145 seconds.

tnom = 27
temp = 27
method = modified trap
totiter = 2085
traniter = 2082
tranpoints = 1042
accept = 1042
rejected = 0
matrix size = 5
fillins = 0
solver = Normal
Matrix Compiler1: 114 bytes object code size  0.1/0.1/[0.0]
Matrix Compiler2:      23 opcodes  0.1/[0.0]/0.0


