Circuit: * D:\Sim\npn_aplificador.asc

C1: both pins shorted together -- ignoring.
WARNING: Node N003 is floating.

WARNING: Less than two connections to node N003.  This node is used by C2.
Direct Newton iteration for .op point succeeded.

Date: Tue Jun 03 13:51:49 2014
Total elapsed time: 0.126 seconds.

tnom = 27
temp = 27
method = modified trap
totiter = 5446
traniter = 5441
tranpoints = 2217
accept = 1579
rejected = 638
matrix size = 9
fillins = 0
solver = Normal
Matrix Compiler1: 510 bytes object code size  0.5/0.1/[0.1]
Matrix Compiler2: 681 bytes object code size  0.1/0.2/[0.1]


