Circuit: * D:\Sim\OpAmpInversor.asc

WARNING: Less than two connections to node -VCC.  This node is used by V2.
Direct Newton iteration for .op point succeeded.

Date: Thu Sep 11 08:55:20 2014
Total elapsed time: 0.073 seconds.

tnom = 27
temp = 27
method = modified trap
totiter = 12414
traniter = 12385
tranpoints = 3820
accept = 2658
rejected = 1162
matrix size = 8
fillins = 1
solver = Normal
Matrix Compiler1: 536 bytes object code size  0.4/0.2/[0.1]
Matrix Compiler2:      49 opcodes  0.2/[0.2]/0.3


