Circuit: * D:\Eletronica\Sim\oscilador.asc

Direct Newton iteration for .op point succeeded.

Date: Fri Aug 02 10:08:29 2013
Total elapsed time: 0.278 seconds.

tnom = 27
temp = 27
method = modified trap
totiter = 53973
traniter = 53965
tranpoints = 17664
accept = 11629
rejected = 6035
matrix size = 17
fillins = 12
solver = Normal
Matrix Compiler1: 1,78 KB object code size  0.6/0.3/[0.2]
Matrix Compiler2: off  [0.2]/0.3/0.2


