Circuit: * D:\Sim\pedal.asc

C1: both pins shorted together -- ignoring.
Direct Newton iteration for .op point succeeded.

Date: Wed Sep 10 13:38:19 2014
Total elapsed time: 0.043 seconds.

tnom = 27
temp = 27
method = modified trap
totiter = 3840
traniter = 3837
tranpoints = 1588
accept = 1413
rejected = 175
matrix size = 6
fillins = 2
solver = Normal
Matrix Compiler1: 730 bytes object code size  0.4/0.2/[0.1]
Matrix Compiler2: off  [0.1]/0.2/0.2


