Circuit: * D:\Sim\ponte h alta.asc

Direct Newton iteration for .op point succeeded.

Date: Fri Apr 24 14:44:44 2015
Total elapsed time: 0.044 seconds.

tnom = 27
temp = 27
method = modified trap
totiter = 2133
traniter = 2094
tranpoints = 1044
accept = 1044
rejected = 0
matrix size = 52
fillins = 50
solver = Normal
Matrix Compiler1: 4,34 KB object code size  1.4/0.6/[0.4]
Matrix Compiler2: off  [0.5]/0.9/1.0


