Circuit: * E:\Eletronica\Sim\programador encoder.asc

Direct Newton iteration for .op point succeeded.

Date: Mon Mar 25 16:45:10 2013
Total elapsed time: 0.067 seconds.

tnom = 27
temp = 27
method = modified trap
totiter = 4098
traniter = 4087
tranpoints = 1803
accept = 1616
rejected = 187
matrix size = 24
fillins = 4
solver = Normal
Matrix Compiler1: 1,83 KB object code size  0.6/0.4/[0.2]
Matrix Compiler2: off  [0.3]/0.3/0.3


