Circuit: * D:\Sim\RC.asc

Direct Newton iteration for .op point succeeded.

Date: Mon Jun 02 14:32:27 2014
Total elapsed time: 0.013 seconds.

tnom = 27
temp = 27
method = trap
totiter = 8
traniter = 0
tranpoints = 0
accept = 0
rejected = 0
matrix size = 6
fillins = 0
solver = Normal
Matrix Compiler1:       9 opcodes
Matrix Compiler2: 380 bytes object code size

