Circuit: * E:\Eletronica\Sim\regulador_3V3.asc

