Circuit: * D:\Sim\three phase rectifier\circuito disparo amostra.asc

WARNING: Less than two connections to node NC_02.  This node is used by Q3.
Direct Newton iteration for .op point succeeded.

Date: Thu Mar 26 08:55:56 2015
Total elapsed time: 0.152 seconds.

tnom = 27
temp = 27
method = modified trap
totiter = 6101
traniter = 6062
tranpoints = 2613
accept = 2286
rejected = 327
matrix size = 76
fillins = 74
solver = Normal
Matrix Compiler1: 7,73 KB object code size  2.4/1.0/[0.6]
Matrix Compiler2: off  [0.7]/1.6/0.8


