Circuit: * D:\Sim\three phase rectifier\diac.asc

u3:2:vigf: Missing value, assumed 0V @ DC
u3:2:viak: Missing value, assumed 0V @ DC
u3:1:vigf: Missing value, assumed 0V @ DC
u3:1:viak: Missing value, assumed 0V @ DC
.OP point found by inspection.

Date: Thu Mar 26 07:38:10 2015
Total elapsed time: 0.399 seconds.

tnom = 27
temp = 27
method = modified trap
totiter = 4054
traniter = 4054
tranpoints = 1540
accept = 1375
rejected = 165
matrix size = 72
fillins = 35
solver = Normal
Matrix Compiler1: 4,20 KB object code size  3.3/1.2/[0.8]
Matrix Compiler2: 5,77 KB object code size  0.9/1.5/[0.8]


