http transferring http://www.onsemi.com/pub_link/Collateral/MUR3020WT.REV0.LIB to C:\Users\cuki\Desktop\MUR3020WT.REV0.LIB
Circuit: * C:\Users\cuki\Desktop\Draft3.asc

.OP point found by inspection.

Date: Mon Mar 16 15:35:41 2015
Total elapsed time: 0.966 seconds.

tnom = 27
temp = 27
method = modified trap
totiter = 3534
traniter = 3534
tranpoints = 1439
accept = 1294
rejected = 145
matrix size = 4
fillins = 0
solver = Normal
Matrix Compiler1: 118 bytes object code size  0.1/0.0/[0.0]
Matrix Compiler2: 242 bytes object code size  0.1/0.1/[0.1]


