Circuit: * D:\Sim\three phase rectifier\Draft2.asc

Direct Newton iteration failed to find .op point.  (Use ".option noopiter" to skip.)
Starting Gmin stepping
Gmin = 10
Gmin = 1.07374
Gmin = 0.115292
Gmin = 0.0123794
Gmin = 0.00132923
Gmin = 0.000142725
Gmin = 1.5325e-005
Gmin = 1.6455e-006
Gmin = 1.76685e-007
Gmin = 1.89714e-008
Gmin = 2.03704e-009
Gmin = 2.18725e-010
Gmin = 2.34854e-011
Gmin = 2.52173e-012
Gmin = 2.70769e-013
Gmin = 0
Gmin stepping succeeded in finding the operating point.

Changing Tseed to 1e-008
Heightened Def Con from 0.100325 to 0.100325
Heightened Def Con from 0.100325 to 0.100325
Heightened Def Con from 0.100325 to 0.100325
Heightened Def Con from 0.100325 to 0.100325
Heightened Def Con from 0.100325 to 0.100325
Heightened Def Con from 0.100325 to 0.100325
Heightened Def Con from 0.100325 to 0.100325
Heightened Def Con from 0.100325 to 0.100325
Heightened Def Con from 0.100325 to 0.100325
Heightened Def Con from 0.100325 to 0.100325
Heightened Def Con from 0.100325 to 0.100325
Heightened Def Con from 0.100326 to 0.100326
Heightened Def Con from 0.100326 to 0.100326
Heightened Def Con from 0.100326 to 0.100326
Heightened Def Con from 0.100326 to 0.100326
Heightened Def Con from 0.100326 to 0.100326
Heightened Def Con from 0.100326 to 0.100326
Heightened Def Con from 0.100326 to 0.100326
Heightened Def Con from 0.100326 to 0.100326
Heightened Def Con from 0.100326 to 0.100326
Heightened Def Con from 0.100326 to 0.100326
Heightened Def Con from 0.100326 to 0.100326
Heightened Def Con from 0.100326 to 0.100326
Heightened Def Con from 0.100326 to 0.100326
Heightened Def Con from 0.100326 to 0.100326
Heightened Def Con from 0.100326 to 0.100326
Heightened Def Con from 0.100326 to 0.100326
Heightened Def Con from 0.100326 to 0.100326
Heightened Def Con from 0.100327 to 0.100327
Heightened Def Con from 0.100327 to 0.100327
Heightened Def Con from 0.100327 to 0.100327
Heightened Def Con from 0.100327 to 0.100327
Heightened Def Con from 0.100327 to 0.100327
Heightened Def Con from 0.100327 to 0.100327
Heightened Def Con from 0.100327 to 0.100327
Heightened Def Con from 0.100327 to 0.100327
Heightened Def Con from 0.100327 to 0.100327
Heightened Def Con from 0.100327 to 0.100327
Heightened Def Con from 0.100327 to 0.100327
Heightened Def Con from 0.100327 to 0.100327
Heightened Def Con from 0.100327 to 0.100327
Heightened Def Con from 0.100327 to 0.100327
Heightened Def Con from 0.100327 to 0.100327
Heightened Def Con from 0.100328 to 0.100328
Heightened Def Con from 0.100328 to 0.100328
Heightened Def Con from 0.100328 to 0.100328
Heightened Def Con from 0.100328 to 0.100328
Heightened Def Con from 0.100328 to 0.100328
Heightened Def Con from 0.100328 to 0.100328
Heightened Def Con from 0.100328 to 0.100328
Heightened Def Con from 0.100328 to 0.100328
Heightened Def Con from 0.100328 to 0.100328
Heightened Def Con from 0.100328 to 0.100328
Heightened Def Con from 0.100328 to 0.100328
Heightened Def Con from 0.100328 to 0.100328
Heightened Def Con from 0.100328 to 0.100328
Heightened Def Con from 0.100328 to 0.100328
Heightened Def Con from 0.100328 to 0.100328
Heightened Def Con from 0.100328 to 0.100328
Heightened Def Con from 0.100328 to 0.100328
Heightened Def Con from 0.100328 to 0.100328
Heightened Def Con from 0.100329 to 0.100329
Heightened Def Con from 0.100329 to 0.100329
Heightened Def Con from 0.100329 to 0.100329
Heightened Def Con from 0.100329 to 0.100329
Heightened Def Con from 0.100329 to 0.100329
Heightened Def Con from 0.100329 to 0.100329
Heightened Def Con from 0.100329 to 0.100329
Heightened Def Con from 0.100329 to 0.100329
Heightened Def Con from 0.100329 to 0.100329
Heightened Def Con from 0.100329 to 0.100329
Heightened Def Con from 0.100329 to 0.100329
Heightened Def Con from 0.100329 to 0.100329
Heightened Def Con from 0.100329 to 0.100329
Heightened Def Con from 0.100329 to 0.100329
Heightened Def Con from 0.100329 to 0.100329
Heightened Def Con from 0.100329 to 0.100329
Heightened Def Con from 0.100329 to 0.100329
Heightened Def Con from 0.10033 to 0.10033
Heightened Def Con from 0.10033 to 0.10033
Heightened Def Con from 0.10033 to 0.10033
Heightened Def Con from 0.10033 to 0.10033
Heightened Def Con from 0.10033 to 0.10033
Heightened Def Con from 0.10033 to 0.10033
Heightened Def Con from 0.10033 to 0.10033
Heightened Def Con from 0.10033 to 0.10033
Heightened Def Con from 0.10033 to 0.10033
Heightened Def Con from 0.10033 to 0.10033
Heightened Def Con from 0.10033 to 0.10033
Heightened Def Con from 0.10033 to 0.10033
Heightened Def Con from 0.10033 to 0.10033
Heightened Def Con from 0.10033 to 0.10033
Heightened Def Con from 0.10033 to 0.10033
Heightened Def Con from 0.10033 to 0.10033
Heightened Def Con from 0.10033 to 0.10033
Heightened Def Con from 0.100331 to 0.100331
Heightened Def Con from 0.100331 to 0.100331
Heightened Def Con from 0.100331 to 0.100331
Heightened Def Con from 0.100331 to 0.100331
Heightened Def Con from 0.100331 to 0.100331
Heightened Def Con from 0.100331 to 0.100331
Heightened Def Con from 0.100331 to 0.100331
Heightened Def Con from 0.100331 to 0.100331
Heightened Def Con from 0.100331 to 0.100331
Heightened Def Con from 0.100331 to 0.100331
Heightened Def Con from 0.100331 to 0.100331
Heightened Def Con from 0.100332 to 0.100332
Heightened Def Con from 0.100332 to 0.100332
Heightened Def Con from 0.100332 to 0.100332
Heightened Def Con from 0.100332 to 0.100332
Heightened Def Con from 0.100332 to 0.100332
Heightened Def Con from 0.100332 to 0.100332
Heightened Def Con from 0.100332 to 0.100332
Heightened Def Con from 0.100332 to 0.100332
Heightened Def Con from 0.100332 to 0.100332
Heightened Def Con from 0.100332 to 0.100332
Heightened Def Con from 0.100332 to 0.100332
Heightened Def Con from 0.100332 to 0.100332
Heightened Def Con from 0.100332 to 0.100332
Heightened Def Con from 0.100332 to 0.100332
Heightened Def Con from 0.100332 to 0.100332
Heightened Def Con from 0.100332 to 0.100332
Heightened Def Con from 0.100332 to 0.100332
Heightened Def Con from 0.100332 to 0.100332
Heightened Def Con from 0.100332 to 0.100332
Heightened Def Con from 0.100332 to 0.100332
Heightened Def Con from 0.100332 to 0.100332
Heightened Def Con from 0.100333 to 0.100333
Heightened Def Con from 0.100333 to 0.100333
Heightened Def Con from 0.100333 to 0.100333
Heightened Def Con from 0.100333 to 0.100333
Heightened Def Con from 0.100333 to 0.100333
Heightened Def Con from 0.100333 to 0.100333
Heightened Def Con from 0.100333 to 0.100333
Heightened Def Con from 0.100333 to 0.100333
Heightened Def Con from 0.100333 to 0.100333
Heightened Def Con from 0.100333 to 0.100333
Heightened Def Con from 0.100333 to 0.100333
Heightened Def Con from 0.100333 to 0.100333
Heightened Def Con from 0.100333 to 0.100333
Heightened Def Con from 0.100333 to 0.100333
Heightened Def Con from 0.100333 to 0.100333
Heightened Def Con from 0.100333 to 0.100333
Heightened Def Con from 0.100333 to 0.100333
Heightened Def Con from 0.100333 to 0.100333
Heightened Def Con from 0.100333 to 0.100333
Heightened Def Con from 0.100333 to 0.100333
Heightened Def Con from 0.100333 to 0.100333
Heightened Def Con from 0.100333 to 0.100333
Heightened Def Con from 0.100333 to 0.100333
Heightened Def Con from 0.100333 to 0.100333
Heightened Def Con from 0.100333 to 0.100333
Heightened Def Con from 0.100333 to 0.100333
Heightened Def Con from 0.100334 to 0.100334
Heightened Def Con from 0.100334 to 0.100334
Heightened Def Con from 0.100334 to 0.100334
Heightened Def Con from 0.100334 to 0.100334
Heightened Def Con from 0.100334 to 0.100334

Date: Thu Mar 19 09:39:20 2015
Total elapsed time: 2.524 seconds.

tnom = 27
temp = 27
method = modified trap
totiter = 257787
traniter = 257278
tranpoints = 38330
accept = 27867
rejected = 10620
matrix size = 48
fillins = 47
solver = Normal
Matrix Compiler1: 4,33 KB object code size  1.5/0.5/[0.4]
Matrix Compiler2: off  [0.6]/0.7/1.1


