Circuit: * D:\Sim\three phase rectifier\npn.asc

V1: Missing value, assumed 0V @ DC

Date: Tue Mar 17 15:44:18 2015
Total elapsed time: 0.010 seconds.

tnom = 27
temp = 27
method = trap
totiter = 114
traniter = 0
tranpoints = 0
accept = 0
rejected = 0
matrix size = 9
fillins = 0
solver = Normal
Matrix Compiler1: 456 bytes object code size  0.2/0.1/[0.1]
Matrix Compiler2: 667 bytes object code size  0.1/0.1/[0.0]


