Circuit: * D:\Sim\three phase rectifier\ponte h.asc

Direct Newton iteration for .op point succeeded.

Date: Fri Mar 20 08:20:24 2015
Total elapsed time: 0.099 seconds.

tnom = 27
temp = 27
method = modified trap
totiter = 7859
traniter = 7852
tranpoints = 3378
accept = 2861
rejected = 517
matrix size = 35
fillins = 0
solver = Normal
Matrix Compiler1: 2,55 KB object code size  1.1/0.4/[0.3]
Matrix Compiler2: off  [0.3]/0.4/0.4


