Circuit: * D:\Sim\three phase rectifier\ponte h comum.asc


Date: Wed Apr 15 13:28:50 2015
Total elapsed time: 0.007 seconds.

tnom = 27
temp = 27
method = trap
totiter = 117
traniter = 0
tranpoints = 0
accept = 0
rejected = 0
matrix size = 9
fillins = 0
solver = Normal
Matrix Compiler1: 474 bytes object code size  0.2/0.1/[0.1]
Matrix Compiler2: 661 bytes object code size  0.1/0.1/[0.0]


