http transferring http://www.onsemi.com/pub_link/Collateral/NHPV08S600G.LIB to D:\Sim\three phase rectifier\NHPV08S600G.LIB
http transferring http://www.onsemi.com/pub_link/Collateral/MUR3020PT.LIB to D:\Sim\three phase rectifier\MUR3020PT.LIB
http transferring http://www.onsemi.com/pub_link/Collateral/1N4007.REV0.LIB to D:\Sim\three phase rectifier\1N4007.REV0.LIB
http transferring http://www.onsemi.com/pub_link/Collateral/MUR1560.REV0.LIB to D:\Sim\three phase rectifier\MUR1560.REV0.LIB
Circuit: * D:\Sim\three phase rectifier\rect.asc

Direct Newton iteration for .op point succeeded.

Date: Mon Apr 13 10:58:27 2015
Total elapsed time: 1.587 seconds.

tnom = 27
temp = 27
method = modified trap
totiter = 10464
traniter = 10457
tranpoints = 3107
accept = 2357
rejected = 750
matrix size = 14
fillins = 2
solver = Normal
Matrix Compiler1: 600 bytes object code size  0.4/0.2/[0.1]
Matrix Compiler2: 1,05 KB object code size  0.3/0.4/[0.3]


